
---------- Begin Simulation Statistics ----------
final_tick                                   44898500                       # Number of ticks from beginning of simulation (restored from checkpoints and never reset)
host_inst_rate                                 184725                       # Simulator instruction rate (inst/s)
host_mem_usage                                 684464                       # Number of bytes of host memory used
host_op_rate                                   212202                       # Simulator op (including micro ops) rate (op/s)
host_seconds                                     0.06                       # Real time elapsed on the host
host_tick_rate                              741239417                       # Simulator tick rate (ticks/s)
sim_freq                                 1000000000000                       # Frequency of simulated ticks
sim_insts                                       11170                       # Number of instructions simulated
sim_ops                                         12850                       # Number of ops (including micro ops) simulated
sim_seconds                                  0.000045                       # Number of seconds simulated
sim_ticks                                    44898500                       # Number of ticks simulated
system.cpu.committedInsts                       11170                       # Number of instructions committed
system.cpu.committedOps                         12850                       # Number of ops (including micro ops) committed
system.cpu.cpi                               8.039123                       # CPI: cycles per instruction
system.cpu.discardedOps                          2035                       # Number of ops (including micro ops) which were discarded before commit
system.cpu.idleCycles                           69221                       # Total number of cycles that the object has spent stopped
system.cpu.ipc                               0.124392                       # IPC: instructions per cycle
system.cpu.numCycles                            89797                       # number of cpu cycles simulated
system.cpu.numFetchSuspends                         0                       # Number of times Execute suspended instruction fetching
system.cpu.numWorkItemsCompleted                    0                       # number of work items this cpu completed
system.cpu.numWorkItemsStarted                      0                       # number of work items this cpu started
system.cpu.op_class_0::No_OpClass                   0      0.00%      0.00% # Class of committed instruction
system.cpu.op_class_0::IntAlu                    8957     69.70%     69.70% # Class of committed instruction
system.cpu.op_class_0::IntMult                     52      0.40%     70.11% # Class of committed instruction
system.cpu.op_class_0::IntDiv                       0      0.00%     70.11% # Class of committed instruction
system.cpu.op_class_0::FloatAdd                     0      0.00%     70.11% # Class of committed instruction
system.cpu.op_class_0::FloatCmp                     0      0.00%     70.11% # Class of committed instruction
system.cpu.op_class_0::FloatCvt                     0      0.00%     70.11% # Class of committed instruction
system.cpu.op_class_0::FloatMult                    0      0.00%     70.11% # Class of committed instruction
system.cpu.op_class_0::FloatMultAcc                 0      0.00%     70.11% # Class of committed instruction
system.cpu.op_class_0::FloatDiv                     0      0.00%     70.11% # Class of committed instruction
system.cpu.op_class_0::FloatMisc                    0      0.00%     70.11% # Class of committed instruction
system.cpu.op_class_0::FloatSqrt                    0      0.00%     70.11% # Class of committed instruction
system.cpu.op_class_0::SimdAdd                      0      0.00%     70.11% # Class of committed instruction
system.cpu.op_class_0::SimdAddAcc                   0      0.00%     70.11% # Class of committed instruction
system.cpu.op_class_0::SimdAlu                      0      0.00%     70.11% # Class of committed instruction
system.cpu.op_class_0::SimdCmp                      0      0.00%     70.11% # Class of committed instruction
system.cpu.op_class_0::SimdCvt                      0      0.00%     70.11% # Class of committed instruction
system.cpu.op_class_0::SimdMisc                     0      0.00%     70.11% # Class of committed instruction
system.cpu.op_class_0::SimdMult                     0      0.00%     70.11% # Class of committed instruction
system.cpu.op_class_0::SimdMultAcc                  0      0.00%     70.11% # Class of committed instruction
system.cpu.op_class_0::SimdShift                    0      0.00%     70.11% # Class of committed instruction
system.cpu.op_class_0::SimdShiftAcc                 0      0.00%     70.11% # Class of committed instruction
system.cpu.op_class_0::SimdDiv                      0      0.00%     70.11% # Class of committed instruction
system.cpu.op_class_0::SimdSqrt                     0      0.00%     70.11% # Class of committed instruction
system.cpu.op_class_0::SimdFloatAdd                 0      0.00%     70.11% # Class of committed instruction
system.cpu.op_class_0::SimdFloatAlu                 0      0.00%     70.11% # Class of committed instruction
system.cpu.op_class_0::SimdFloatCmp                 0      0.00%     70.11% # Class of committed instruction
system.cpu.op_class_0::SimdFloatCvt                 0      0.00%     70.11% # Class of committed instruction
system.cpu.op_class_0::SimdFloatDiv                 0      0.00%     70.11% # Class of committed instruction
system.cpu.op_class_0::SimdFloatMisc               21      0.16%     70.27% # Class of committed instruction
system.cpu.op_class_0::SimdFloatMult                0      0.00%     70.27% # Class of committed instruction
system.cpu.op_class_0::SimdFloatMultAcc             0      0.00%     70.27% # Class of committed instruction
system.cpu.op_class_0::SimdFloatSqrt                0      0.00%     70.27% # Class of committed instruction
system.cpu.op_class_0::SimdReduceAdd                0      0.00%     70.27% # Class of committed instruction
system.cpu.op_class_0::SimdReduceAlu                0      0.00%     70.27% # Class of committed instruction
system.cpu.op_class_0::SimdReduceCmp                0      0.00%     70.27% # Class of committed instruction
system.cpu.op_class_0::SimdFloatReduceAdd            0      0.00%     70.27% # Class of committed instruction
system.cpu.op_class_0::SimdFloatReduceCmp            0      0.00%     70.27% # Class of committed instruction
system.cpu.op_class_0::SimdAes                      0      0.00%     70.27% # Class of committed instruction
system.cpu.op_class_0::SimdAesMix                   0      0.00%     70.27% # Class of committed instruction
system.cpu.op_class_0::SimdSha1Hash                 0      0.00%     70.27% # Class of committed instruction
system.cpu.op_class_0::SimdSha1Hash2                0      0.00%     70.27% # Class of committed instruction
system.cpu.op_class_0::SimdSha256Hash               0      0.00%     70.27% # Class of committed instruction
system.cpu.op_class_0::SimdSha256Hash2              0      0.00%     70.27% # Class of committed instruction
system.cpu.op_class_0::SimdShaSigma2                0      0.00%     70.27% # Class of committed instruction
system.cpu.op_class_0::SimdShaSigma3                0      0.00%     70.27% # Class of committed instruction
system.cpu.op_class_0::SimdPredAlu                  0      0.00%     70.27% # Class of committed instruction
system.cpu.op_class_0::MemRead                   1937     15.07%     85.35% # Class of committed instruction
system.cpu.op_class_0::MemWrite                  1883     14.65%    100.00% # Class of committed instruction
system.cpu.op_class_0::FloatMemRead                 0      0.00%    100.00% # Class of committed instruction
system.cpu.op_class_0::FloatMemWrite                0      0.00%    100.00% # Class of committed instruction
system.cpu.op_class_0::IprAccess                    0      0.00%    100.00% # Class of committed instruction
system.cpu.op_class_0::InstPrefetch                 0      0.00%    100.00% # Class of committed instruction
system.cpu.op_class_0::total                    12850                       # Class of committed instruction
system.cpu.tickCycles                           20576                       # Number of cycles that the object actually ticked
system.cpu.workload.numSyscalls                    12                       # Number of system calls
system.membus.snoop_filter.hit_multi_requests            0                       # Number of requests hitting in the snoop filter with multiple (>1) holders of the requested data.
system.membus.snoop_filter.hit_multi_snoops            0                       # Number of snoops hitting in the snoop filter with multiple (>1) holders of the requested data.
system.membus.snoop_filter.hit_single_requests            0                       # Number of requests hitting in the snoop filter with a single holder of the requested data.
system.membus.snoop_filter.hit_single_snoops            0                       # Number of snoops hitting in the snoop filter with a single holder of the requested data.
system.membus.snoop_filter.tot_requests           563                       # Total number of requests made to the snoop filter.
system.membus.snoop_filter.tot_snoops               0                       # Total number of snoops made to the snoop filter.
system.tol2bus.snoop_filter.hit_multi_requests            9                       # Number of requests hitting in the snoop filter with multiple (>1) holders of the requested data.
system.tol2bus.snoop_filter.hit_multi_snoops            0                       # Number of snoops hitting in the snoop filter with multiple (>1) holders of the requested data.
system.tol2bus.snoop_filter.hit_single_requests          126                       # Number of requests hitting in the snoop filter with a single holder of the requested data.
system.tol2bus.snoop_filter.hit_single_snoops            0                       # Number of snoops hitting in the snoop filter with a single holder of the requested data.
system.tol2bus.snoop_filter.tot_requests          718                       # Total number of requests made to the snoop filter.
system.tol2bus.snoop_filter.tot_snoops              0                       # Total number of snoops made to the snoop filter.
system.membus.trans_dist::ReadResp                491                       # Transaction distribution
system.membus.trans_dist::ReadExReq                72                       # Transaction distribution
system.membus.trans_dist::ReadExResp               72                       # Transaction distribution
system.membus.trans_dist::ReadSharedReq           491                       # Transaction distribution
system.membus.pkt_count_system.l2.mem_side_port::system.mem_ctrls.port         1126                       # Packet count per connected requestor and responder (bytes)
system.membus.pkt_count::total                   1126                       # Packet count per connected requestor and responder (bytes)
system.membus.pkt_size_system.l2.mem_side_port::system.mem_ctrls.port        36032                       # Cumulative packet size per connected requestor and responder (bytes)
system.membus.pkt_size::total                   36032                       # Cumulative packet size per connected requestor and responder (bytes)
system.membus.snoops                                0                       # Total snoops (count)
system.membus.snoopTraffic                          0                       # Total snoop traffic (bytes)
system.membus.snoop_fanout::samples               563                       # Request fanout histogram
system.membus.snoop_fanout::mean                    0                       # Request fanout histogram
system.membus.snoop_fanout::stdev                   0                       # Request fanout histogram
system.membus.snoop_fanout::underflows              0      0.00%      0.00% # Request fanout histogram
system.membus.snoop_fanout::0                     563    100.00%    100.00% # Request fanout histogram
system.membus.snoop_fanout::1                       0      0.00%    100.00% # Request fanout histogram
system.membus.snoop_fanout::overflows               0      0.00%    100.00% # Request fanout histogram
system.membus.snoop_fanout::min_value               0                       # Request fanout histogram
system.membus.snoop_fanout::max_value               0                       # Request fanout histogram
system.membus.snoop_fanout::total                 563                       # Request fanout histogram
system.membus.reqLayer0.occupancy              647500                       # Layer occupancy (ticks)
system.membus.reqLayer0.utilization               1.4                       # Layer utilization (%)
system.membus.respLayer1.occupancy            3003000                       # Layer occupancy (ticks)
system.membus.respLayer1.utilization              6.7                       # Layer utilization (%)
system.membus.power_state.pwrStateResidencyTicks::UNDEFINED     44898500                       # Cumulative time (in ticks) in various power states
system.tol2bus.trans_dist::ReadResp               535                       # Transaction distribution
system.tol2bus.trans_dist::WritebackClean          111                       # Transaction distribution
system.tol2bus.trans_dist::ReadExReq               72                       # Transaction distribution
system.tol2bus.trans_dist::ReadExResp              72                       # Transaction distribution
system.tol2bus.trans_dist::ReadCleanReq           414                       # Transaction distribution
system.tol2bus.trans_dist::ReadSharedReq          121                       # Transaction distribution
system.tol2bus.pkt_count_system.cpu.icache.mem_side_port::system.l2.cpu_side_port          939                       # Packet count per connected requestor and responder (bytes)
system.tol2bus.pkt_count_system.cpu.dcache.mem_side_port::system.l2.cpu_side_port          386                       # Packet count per connected requestor and responder (bytes)
system.tol2bus.pkt_count::total                  1325                       # Packet count per connected requestor and responder (bytes)
system.tol2bus.pkt_size_system.cpu.icache.mem_side_port::system.l2.cpu_side_port        33600                       # Cumulative packet size per connected requestor and responder (bytes)
system.tol2bus.pkt_size_system.cpu.dcache.mem_side_port::system.l2.cpu_side_port        12352                       # Cumulative packet size per connected requestor and responder (bytes)
system.tol2bus.pkt_size::total                  45952                       # Cumulative packet size per connected requestor and responder (bytes)
system.tol2bus.snoops                               0                       # Total snoops (count)
system.tol2bus.snoopTraffic                         0                       # Total snoop traffic (bytes)
system.tol2bus.snoop_fanout::samples              607                       # Request fanout histogram
system.tol2bus.snoop_fanout::mean            0.039539                       # Request fanout histogram
system.tol2bus.snoop_fanout::stdev           0.195034                       # Request fanout histogram
system.tol2bus.snoop_fanout::underflows             0      0.00%      0.00% # Request fanout histogram
system.tol2bus.snoop_fanout::0                    583     96.05%     96.05% # Request fanout histogram
system.tol2bus.snoop_fanout::1                     24      3.95%    100.00% # Request fanout histogram
system.tol2bus.snoop_fanout::2                      0      0.00%    100.00% # Request fanout histogram
system.tol2bus.snoop_fanout::overflows              0      0.00%    100.00% # Request fanout histogram
system.tol2bus.snoop_fanout::min_value              0                       # Request fanout histogram
system.tol2bus.snoop_fanout::max_value              1                       # Request fanout histogram
system.tol2bus.snoop_fanout::total                607                       # Request fanout histogram
system.tol2bus.reqLayer0.occupancy             470000                       # Layer occupancy (ticks)
system.tol2bus.reqLayer0.utilization              1.0                       # Layer utilization (%)
system.tol2bus.respLayer1.occupancy            290498                       # Layer occupancy (ticks)
system.tol2bus.respLayer1.utilization             0.6                       # Layer utilization (%)
system.tol2bus.respLayer0.occupancy            621000                       # Layer occupancy (ticks)
system.tol2bus.respLayer0.utilization             1.4                       # Layer utilization (%)
system.tol2bus.power_state.pwrStateResidencyTicks::UNDEFINED     44898500                       # Cumulative time (in ticks) in various power states
system.voltage_domain.voltage                       1                       # Voltage in Volts
system.clk_domain.clock                          1000                       # Clock period in ticks
system.l2.demand_hits::.cpu.inst                   28                       # number of demand (read+write) hits
system.l2.demand_hits::.cpu.data                   14                       # number of demand (read+write) hits
system.l2.demand_hits::total                       42                       # number of demand (read+write) hits
system.l2.overall_hits::.cpu.inst                  28                       # number of overall hits
system.l2.overall_hits::.cpu.data                  14                       # number of overall hits
system.l2.overall_hits::total                      42                       # number of overall hits
system.l2.demand_misses::.cpu.inst                386                       # number of demand (read+write) misses
system.l2.demand_misses::.cpu.data                179                       # number of demand (read+write) misses
system.l2.demand_misses::total                    565                       # number of demand (read+write) misses
system.l2.overall_misses::.cpu.inst               386                       # number of overall misses
system.l2.overall_misses::.cpu.data               179                       # number of overall misses
system.l2.overall_misses::total                   565                       # number of overall misses
system.l2.demand_miss_latency::.cpu.inst     28955000                       # number of demand (read+write) miss cycles
system.l2.demand_miss_latency::.cpu.data     14653000                       # number of demand (read+write) miss cycles
system.l2.demand_miss_latency::total         43608000                       # number of demand (read+write) miss cycles
system.l2.overall_miss_latency::.cpu.inst     28955000                       # number of overall miss cycles
system.l2.overall_miss_latency::.cpu.data     14653000                       # number of overall miss cycles
system.l2.overall_miss_latency::total        43608000                       # number of overall miss cycles
system.l2.demand_accesses::.cpu.inst              414                       # number of demand (read+write) accesses
system.l2.demand_accesses::.cpu.data              193                       # number of demand (read+write) accesses
system.l2.demand_accesses::total                  607                       # number of demand (read+write) accesses
system.l2.overall_accesses::.cpu.inst             414                       # number of overall (read+write) accesses
system.l2.overall_accesses::.cpu.data             193                       # number of overall (read+write) accesses
system.l2.overall_accesses::total                 607                       # number of overall (read+write) accesses
system.l2.demand_miss_rate::.cpu.inst        0.932367                       # miss rate for demand accesses
system.l2.demand_miss_rate::.cpu.data        0.927461                       # miss rate for demand accesses
system.l2.demand_miss_rate::total            0.930807                       # miss rate for demand accesses
system.l2.overall_miss_rate::.cpu.inst       0.932367                       # miss rate for overall accesses
system.l2.overall_miss_rate::.cpu.data       0.927461                       # miss rate for overall accesses
system.l2.overall_miss_rate::total           0.930807                       # miss rate for overall accesses
system.l2.demand_avg_miss_latency::.cpu.inst 75012.953368                       # average overall miss latency
system.l2.demand_avg_miss_latency::.cpu.data 81860.335196                       # average overall miss latency
system.l2.demand_avg_miss_latency::total 77182.300885                       # average overall miss latency
system.l2.overall_avg_miss_latency::.cpu.inst 75012.953368                       # average overall miss latency
system.l2.overall_avg_miss_latency::.cpu.data 81860.335196                       # average overall miss latency
system.l2.overall_avg_miss_latency::total 77182.300885                       # average overall miss latency
system.l2.blocked_cycles::no_mshrs                  0                       # number of cycles access was blocked
system.l2.blocked_cycles::no_targets                0                       # number of cycles access was blocked
system.l2.blocked::no_mshrs                         0                       # number of cycles access was blocked
system.l2.blocked::no_targets                       0                       # number of cycles access was blocked
system.l2.avg_blocked_cycles::no_mshrs            nan                       # average number of cycles each access was blocked
system.l2.avg_blocked_cycles::no_targets          nan                       # average number of cycles each access was blocked
system.l2.demand_mshr_hits::.cpu.data               2                       # number of demand (read+write) MSHR hits
system.l2.demand_mshr_hits::total                   2                       # number of demand (read+write) MSHR hits
system.l2.overall_mshr_hits::.cpu.data              2                       # number of overall MSHR hits
system.l2.overall_mshr_hits::total                  2                       # number of overall MSHR hits
system.l2.demand_mshr_misses::.cpu.inst           386                       # number of demand (read+write) MSHR misses
system.l2.demand_mshr_misses::.cpu.data           177                       # number of demand (read+write) MSHR misses
system.l2.demand_mshr_misses::total               563                       # number of demand (read+write) MSHR misses
system.l2.overall_mshr_misses::.cpu.inst          386                       # number of overall MSHR misses
system.l2.overall_mshr_misses::.cpu.data          177                       # number of overall MSHR misses
system.l2.overall_mshr_misses::total              563                       # number of overall MSHR misses
system.l2.demand_mshr_miss_latency::.cpu.inst     25095000                       # number of demand (read+write) MSHR miss cycles
system.l2.demand_mshr_miss_latency::.cpu.data     12748000                       # number of demand (read+write) MSHR miss cycles
system.l2.demand_mshr_miss_latency::total     37843000                       # number of demand (read+write) MSHR miss cycles
system.l2.overall_mshr_miss_latency::.cpu.inst     25095000                       # number of overall MSHR miss cycles
system.l2.overall_mshr_miss_latency::.cpu.data     12748000                       # number of overall MSHR miss cycles
system.l2.overall_mshr_miss_latency::total     37843000                       # number of overall MSHR miss cycles
system.l2.demand_mshr_miss_rate::.cpu.inst     0.932367                       # mshr miss rate for demand accesses
system.l2.demand_mshr_miss_rate::.cpu.data     0.917098                       # mshr miss rate for demand accesses
system.l2.demand_mshr_miss_rate::total       0.927512                       # mshr miss rate for demand accesses
system.l2.overall_mshr_miss_rate::.cpu.inst     0.932367                       # mshr miss rate for overall accesses
system.l2.overall_mshr_miss_rate::.cpu.data     0.917098                       # mshr miss rate for overall accesses
system.l2.overall_mshr_miss_rate::total      0.927512                       # mshr miss rate for overall accesses
system.l2.demand_avg_mshr_miss_latency::.cpu.inst 65012.953368                       # average overall mshr miss latency
system.l2.demand_avg_mshr_miss_latency::.cpu.data 72022.598870                       # average overall mshr miss latency
system.l2.demand_avg_mshr_miss_latency::total 67216.696270                       # average overall mshr miss latency
system.l2.overall_avg_mshr_miss_latency::.cpu.inst 65012.953368                       # average overall mshr miss latency
system.l2.overall_avg_mshr_miss_latency::.cpu.data 72022.598870                       # average overall mshr miss latency
system.l2.overall_avg_mshr_miss_latency::total 67216.696270                       # average overall mshr miss latency
system.l2.replacements                              0                       # number of replacements
system.l2.WritebackClean_hits::.writebacks          102                       # number of WritebackClean hits
system.l2.WritebackClean_hits::total              102                       # number of WritebackClean hits
system.l2.WritebackClean_accesses::.writebacks          102                       # number of WritebackClean accesses(hits+misses)
system.l2.WritebackClean_accesses::total          102                       # number of WritebackClean accesses(hits+misses)
system.l2.ReadExReq_misses::.cpu.data              72                       # number of ReadExReq misses
system.l2.ReadExReq_misses::total                  72                       # number of ReadExReq misses
system.l2.ReadExReq_miss_latency::.cpu.data      5981500                       # number of ReadExReq miss cycles
system.l2.ReadExReq_miss_latency::total       5981500                       # number of ReadExReq miss cycles
system.l2.ReadExReq_accesses::.cpu.data            72                       # number of ReadExReq accesses(hits+misses)
system.l2.ReadExReq_accesses::total                72                       # number of ReadExReq accesses(hits+misses)
system.l2.ReadExReq_miss_rate::.cpu.data            1                       # miss rate for ReadExReq accesses
system.l2.ReadExReq_miss_rate::total                1                       # miss rate for ReadExReq accesses
system.l2.ReadExReq_avg_miss_latency::.cpu.data 83076.388889                       # average ReadExReq miss latency
system.l2.ReadExReq_avg_miss_latency::total 83076.388889                       # average ReadExReq miss latency
system.l2.ReadExReq_mshr_misses::.cpu.data           72                       # number of ReadExReq MSHR misses
system.l2.ReadExReq_mshr_misses::total             72                       # number of ReadExReq MSHR misses
system.l2.ReadExReq_mshr_miss_latency::.cpu.data      5261500                       # number of ReadExReq MSHR miss cycles
system.l2.ReadExReq_mshr_miss_latency::total      5261500                       # number of ReadExReq MSHR miss cycles
system.l2.ReadExReq_mshr_miss_rate::.cpu.data            1                       # mshr miss rate for ReadExReq accesses
system.l2.ReadExReq_mshr_miss_rate::total            1                       # mshr miss rate for ReadExReq accesses
system.l2.ReadExReq_avg_mshr_miss_latency::.cpu.data 73076.388889                       # average ReadExReq mshr miss latency
system.l2.ReadExReq_avg_mshr_miss_latency::total 73076.388889                       # average ReadExReq mshr miss latency
system.l2.ReadCleanReq_hits::.cpu.inst             28                       # number of ReadCleanReq hits
system.l2.ReadCleanReq_hits::total                 28                       # number of ReadCleanReq hits
system.l2.ReadCleanReq_misses::.cpu.inst          386                       # number of ReadCleanReq misses
system.l2.ReadCleanReq_misses::total              386                       # number of ReadCleanReq misses
system.l2.ReadCleanReq_miss_latency::.cpu.inst     28955000                       # number of ReadCleanReq miss cycles
system.l2.ReadCleanReq_miss_latency::total     28955000                       # number of ReadCleanReq miss cycles
system.l2.ReadCleanReq_accesses::.cpu.inst          414                       # number of ReadCleanReq accesses(hits+misses)
system.l2.ReadCleanReq_accesses::total            414                       # number of ReadCleanReq accesses(hits+misses)
system.l2.ReadCleanReq_miss_rate::.cpu.inst     0.932367                       # miss rate for ReadCleanReq accesses
system.l2.ReadCleanReq_miss_rate::total      0.932367                       # miss rate for ReadCleanReq accesses
system.l2.ReadCleanReq_avg_miss_latency::.cpu.inst 75012.953368                       # average ReadCleanReq miss latency
system.l2.ReadCleanReq_avg_miss_latency::total 75012.953368                       # average ReadCleanReq miss latency
system.l2.ReadCleanReq_mshr_misses::.cpu.inst          386                       # number of ReadCleanReq MSHR misses
system.l2.ReadCleanReq_mshr_misses::total          386                       # number of ReadCleanReq MSHR misses
system.l2.ReadCleanReq_mshr_miss_latency::.cpu.inst     25095000                       # number of ReadCleanReq MSHR miss cycles
system.l2.ReadCleanReq_mshr_miss_latency::total     25095000                       # number of ReadCleanReq MSHR miss cycles
system.l2.ReadCleanReq_mshr_miss_rate::.cpu.inst     0.932367                       # mshr miss rate for ReadCleanReq accesses
system.l2.ReadCleanReq_mshr_miss_rate::total     0.932367                       # mshr miss rate for ReadCleanReq accesses
system.l2.ReadCleanReq_avg_mshr_miss_latency::.cpu.inst 65012.953368                       # average ReadCleanReq mshr miss latency
system.l2.ReadCleanReq_avg_mshr_miss_latency::total 65012.953368                       # average ReadCleanReq mshr miss latency
system.l2.ReadSharedReq_hits::.cpu.data            14                       # number of ReadSharedReq hits
system.l2.ReadSharedReq_hits::total                14                       # number of ReadSharedReq hits
system.l2.ReadSharedReq_misses::.cpu.data          107                       # number of ReadSharedReq misses
system.l2.ReadSharedReq_misses::total             107                       # number of ReadSharedReq misses
system.l2.ReadSharedReq_miss_latency::.cpu.data      8671500                       # number of ReadSharedReq miss cycles
system.l2.ReadSharedReq_miss_latency::total      8671500                       # number of ReadSharedReq miss cycles
system.l2.ReadSharedReq_accesses::.cpu.data          121                       # number of ReadSharedReq accesses(hits+misses)
system.l2.ReadSharedReq_accesses::total           121                       # number of ReadSharedReq accesses(hits+misses)
system.l2.ReadSharedReq_miss_rate::.cpu.data     0.884298                       # miss rate for ReadSharedReq accesses
system.l2.ReadSharedReq_miss_rate::total     0.884298                       # miss rate for ReadSharedReq accesses
system.l2.ReadSharedReq_avg_miss_latency::.cpu.data 81042.056075                       # average ReadSharedReq miss latency
system.l2.ReadSharedReq_avg_miss_latency::total 81042.056075                       # average ReadSharedReq miss latency
system.l2.ReadSharedReq_mshr_hits::.cpu.data            2                       # number of ReadSharedReq MSHR hits
system.l2.ReadSharedReq_mshr_hits::total            2                       # number of ReadSharedReq MSHR hits
system.l2.ReadSharedReq_mshr_misses::.cpu.data          105                       # number of ReadSharedReq MSHR misses
system.l2.ReadSharedReq_mshr_misses::total          105                       # number of ReadSharedReq MSHR misses
system.l2.ReadSharedReq_mshr_miss_latency::.cpu.data      7486500                       # number of ReadSharedReq MSHR miss cycles
system.l2.ReadSharedReq_mshr_miss_latency::total      7486500                       # number of ReadSharedReq MSHR miss cycles
system.l2.ReadSharedReq_mshr_miss_rate::.cpu.data     0.867769                       # mshr miss rate for ReadSharedReq accesses
system.l2.ReadSharedReq_mshr_miss_rate::total     0.867769                       # mshr miss rate for ReadSharedReq accesses
system.l2.ReadSharedReq_avg_mshr_miss_latency::.cpu.data        71300                       # average ReadSharedReq mshr miss latency
system.l2.ReadSharedReq_avg_mshr_miss_latency::total        71300                       # average ReadSharedReq mshr miss latency
system.l2.power_state.pwrStateResidencyTicks::UNDEFINED     44898500                       # Cumulative time (in ticks) in various power states
system.l2.tags.tagsinuse                   295.312422                       # Cycle average of tags in use
system.l2.tags.total_refs                         707                       # Total number of references to valid blocks.
system.l2.tags.sampled_refs                       563                       # Sample count of references to valid blocks.
system.l2.tags.avg_refs                      1.255773                       # Average number of references to valid blocks.
system.l2.tags.warmup_cycle                     77000                       # Cycle when the warmup percentage was hit.
system.l2.tags.occ_blocks::.cpu.inst       195.989982                       # Average occupied blocks per requestor
system.l2.tags.occ_blocks::.cpu.data        99.322440                       # Average occupied blocks per requestor
system.l2.tags.occ_percent::.cpu.inst        0.005981                       # Average percentage of cache occupancy
system.l2.tags.occ_percent::.cpu.data        0.003031                       # Average percentage of cache occupancy
system.l2.tags.occ_percent::total            0.009012                       # Average percentage of cache occupancy
system.l2.tags.occ_task_id_blocks::1024           563                       # Occupied blocks per task id
system.l2.tags.age_task_id_blocks_1024::0          107                       # Occupied blocks per task id
system.l2.tags.age_task_id_blocks_1024::1          456                       # Occupied blocks per task id
system.l2.tags.occ_task_id_percent::1024     0.017181                       # Percentage of cache occupancy per task id
system.l2.tags.tag_accesses                      6235                       # Number of tag accesses
system.l2.tags.data_accesses                     6235                       # Number of data accesses
system.l2.tags.power_state.pwrStateResidencyTicks::UNDEFINED     44898500                       # Cumulative time (in ticks) in various power states
system.cpu_voltage_domain.voltage                   1                       # Voltage in Volts
system.mem_ctrls.avgPriority_.cpu.inst::samples       386.00                       # Average QoS priority value for accepted requests
system.mem_ctrls.avgPriority_.cpu.data::samples       177.00                       # Average QoS priority value for accepted requests
system.mem_ctrls.priorityMinLatency      0.000000018750                       # per QoS priority minimum request to response latency (s)
system.mem_ctrls.priorityMaxLatency      0.000000538500                       # per QoS priority maximum request to response latency (s)
system.mem_ctrls.numReadWriteTurnArounds            0                       # Number of turnarounds from READ to WRITE
system.mem_ctrls.numWriteReadTurnArounds            0                       # Number of turnarounds from WRITE to READ
system.mem_ctrls.numStayReadState                1133                       # Number of times bus staying in READ state
system.mem_ctrls.numStayWriteState                  0                       # Number of times bus staying in WRITE state
system.mem_ctrls.readReqs                         563                       # Number of read requests accepted
system.mem_ctrls.writeReqs                          0                       # Number of write requests accepted
system.mem_ctrls.readBursts                       563                       # Number of controller read bursts, including those serviced by the write queue
system.mem_ctrls.writeBursts                        0                       # Number of controller write bursts, including those merged in the write queue
system.mem_ctrls.servicedByWrQ                      0                       # Number of controller read bursts serviced by the write queue
system.mem_ctrls.mergedWrBursts                     0                       # Number of controller write bursts merged with an existing one
system.mem_ctrls.neitherReadNorWriteReqs            0                       # Number of requests that are neither read nor write
system.mem_ctrls.avgRdQLen                       1.16                       # Average read queue length when enqueuing
system.mem_ctrls.avgWrQLen                       0.00                       # Average write queue length when enqueuing
system.mem_ctrls.numRdRetry                         0                       # Number of times read queue was full causing retry
system.mem_ctrls.numWrRetry                         0                       # Number of times write queue was full causing retry
system.mem_ctrls.readPktSize::0                     0                       # Read request sizes (log2)
system.mem_ctrls.readPktSize::1                     0                       # Read request sizes (log2)
system.mem_ctrls.readPktSize::2                     0                       # Read request sizes (log2)
system.mem_ctrls.readPktSize::3                     0                       # Read request sizes (log2)
system.mem_ctrls.readPktSize::4                     0                       # Read request sizes (log2)
system.mem_ctrls.readPktSize::5                     0                       # Read request sizes (log2)
system.mem_ctrls.readPktSize::6                   563                       # Read request sizes (log2)
system.mem_ctrls.writePktSize::0                    0                       # Write request sizes (log2)
system.mem_ctrls.writePktSize::1                    0                       # Write request sizes (log2)
system.mem_ctrls.writePktSize::2                    0                       # Write request sizes (log2)
system.mem_ctrls.writePktSize::3                    0                       # Write request sizes (log2)
system.mem_ctrls.writePktSize::4                    0                       # Write request sizes (log2)
system.mem_ctrls.writePktSize::5                    0                       # Write request sizes (log2)
system.mem_ctrls.writePktSize::6                    0                       # Write request sizes (log2)
system.mem_ctrls.rdQLenPdf::0                     478                       # What read queue length does an incoming req see
system.mem_ctrls.rdQLenPdf::1                      81                       # What read queue length does an incoming req see
system.mem_ctrls.rdQLenPdf::2                       4                       # What read queue length does an incoming req see
system.mem_ctrls.rdQLenPdf::3                       0                       # What read queue length does an incoming req see
system.mem_ctrls.rdQLenPdf::4                       0                       # What read queue length does an incoming req see
system.mem_ctrls.rdQLenPdf::5                       0                       # What read queue length does an incoming req see
system.mem_ctrls.rdQLenPdf::6                       0                       # What read queue length does an incoming req see
system.mem_ctrls.rdQLenPdf::7                       0                       # What read queue length does an incoming req see
system.mem_ctrls.rdQLenPdf::8                       0                       # What read queue length does an incoming req see
system.mem_ctrls.rdQLenPdf::9                       0                       # What read queue length does an incoming req see
system.mem_ctrls.rdQLenPdf::10                      0                       # What read queue length does an incoming req see
system.mem_ctrls.rdQLenPdf::11                      0                       # What read queue length does an incoming req see
system.mem_ctrls.rdQLenPdf::12                      0                       # What read queue length does an incoming req see
system.mem_ctrls.rdQLenPdf::13                      0                       # What read queue length does an incoming req see
system.mem_ctrls.rdQLenPdf::14                      0                       # What read queue length does an incoming req see
system.mem_ctrls.rdQLenPdf::15                      0                       # What read queue length does an incoming req see
system.mem_ctrls.rdQLenPdf::16                      0                       # What read queue length does an incoming req see
system.mem_ctrls.rdQLenPdf::17                      0                       # What read queue length does an incoming req see
system.mem_ctrls.rdQLenPdf::18                      0                       # What read queue length does an incoming req see
system.mem_ctrls.rdQLenPdf::19                      0                       # What read queue length does an incoming req see
system.mem_ctrls.rdQLenPdf::20                      0                       # What read queue length does an incoming req see
system.mem_ctrls.rdQLenPdf::21                      0                       # What read queue length does an incoming req see
system.mem_ctrls.rdQLenPdf::22                      0                       # What read queue length does an incoming req see
system.mem_ctrls.rdQLenPdf::23                      0                       # What read queue length does an incoming req see
system.mem_ctrls.rdQLenPdf::24                      0                       # What read queue length does an incoming req see
system.mem_ctrls.rdQLenPdf::25                      0                       # What read queue length does an incoming req see
system.mem_ctrls.rdQLenPdf::26                      0                       # What read queue length does an incoming req see
system.mem_ctrls.rdQLenPdf::27                      0                       # What read queue length does an incoming req see
system.mem_ctrls.rdQLenPdf::28                      0                       # What read queue length does an incoming req see
system.mem_ctrls.rdQLenPdf::29                      0                       # What read queue length does an incoming req see
system.mem_ctrls.rdQLenPdf::30                      0                       # What read queue length does an incoming req see
system.mem_ctrls.rdQLenPdf::31                      0                       # What read queue length does an incoming req see
system.mem_ctrls.wrQLenPdf::0                       0                       # What write queue length does an incoming req see
system.mem_ctrls.wrQLenPdf::1                       0                       # What write queue length does an incoming req see
system.mem_ctrls.wrQLenPdf::2                       0                       # What write queue length does an incoming req see
system.mem_ctrls.wrQLenPdf::3                       0                       # What write queue length does an incoming req see
system.mem_ctrls.wrQLenPdf::4                       0                       # What write queue length does an incoming req see
system.mem_ctrls.wrQLenPdf::5                       0                       # What write queue length does an incoming req see
system.mem_ctrls.wrQLenPdf::6                       0                       # What write queue length does an incoming req see
system.mem_ctrls.wrQLenPdf::7                       0                       # What write queue length does an incoming req see
system.mem_ctrls.wrQLenPdf::8                       0                       # What write queue length does an incoming req see
system.mem_ctrls.wrQLenPdf::9                       0                       # What write queue length does an incoming req see
system.mem_ctrls.wrQLenPdf::10                      0                       # What write queue length does an incoming req see
system.mem_ctrls.wrQLenPdf::11                      0                       # What write queue length does an incoming req see
system.mem_ctrls.wrQLenPdf::12                      0                       # What write queue length does an incoming req see
system.mem_ctrls.wrQLenPdf::13                      0                       # What write queue length does an incoming req see
system.mem_ctrls.wrQLenPdf::14                      0                       # What write queue length does an incoming req see
system.mem_ctrls.wrQLenPdf::15                      0                       # What write queue length does an incoming req see
system.mem_ctrls.wrQLenPdf::16                      0                       # What write queue length does an incoming req see
system.mem_ctrls.wrQLenPdf::17                      0                       # What write queue length does an incoming req see
system.mem_ctrls.wrQLenPdf::18                      0                       # What write queue length does an incoming req see
system.mem_ctrls.wrQLenPdf::19                      0                       # What write queue length does an incoming req see
system.mem_ctrls.wrQLenPdf::20                      0                       # What write queue length does an incoming req see
system.mem_ctrls.wrQLenPdf::21                      0                       # What write queue length does an incoming req see
system.mem_ctrls.wrQLenPdf::22                      0                       # What write queue length does an incoming req see
system.mem_ctrls.wrQLenPdf::23                      0                       # What write queue length does an incoming req see
system.mem_ctrls.wrQLenPdf::24                      0                       # What write queue length does an incoming req see
system.mem_ctrls.wrQLenPdf::25                      0                       # What write queue length does an incoming req see
system.mem_ctrls.wrQLenPdf::26                      0                       # What write queue length does an incoming req see
system.mem_ctrls.wrQLenPdf::27                      0                       # What write queue length does an incoming req see
system.mem_ctrls.wrQLenPdf::28                      0                       # What write queue length does an incoming req see
system.mem_ctrls.wrQLenPdf::29                      0                       # What write queue length does an incoming req see
system.mem_ctrls.wrQLenPdf::30                      0                       # What write queue length does an incoming req see
system.mem_ctrls.wrQLenPdf::31                      0                       # What write queue length does an incoming req see
system.mem_ctrls.wrQLenPdf::32                      0                       # What write queue length does an incoming req see
system.mem_ctrls.wrQLenPdf::33                      0                       # What write queue length does an incoming req see
system.mem_ctrls.wrQLenPdf::34                      0                       # What write queue length does an incoming req see
system.mem_ctrls.wrQLenPdf::35                      0                       # What write queue length does an incoming req see
system.mem_ctrls.wrQLenPdf::36                      0                       # What write queue length does an incoming req see
system.mem_ctrls.wrQLenPdf::37                      0                       # What write queue length does an incoming req see
system.mem_ctrls.wrQLenPdf::38                      0                       # What write queue length does an incoming req see
system.mem_ctrls.wrQLenPdf::39                      0                       # What write queue length does an incoming req see
system.mem_ctrls.wrQLenPdf::40                      0                       # What write queue length does an incoming req see
system.mem_ctrls.wrQLenPdf::41                      0                       # What write queue length does an incoming req see
system.mem_ctrls.wrQLenPdf::42                      0                       # What write queue length does an incoming req see
system.mem_ctrls.wrQLenPdf::43                      0                       # What write queue length does an incoming req see
system.mem_ctrls.wrQLenPdf::44                      0                       # What write queue length does an incoming req see
system.mem_ctrls.wrQLenPdf::45                      0                       # What write queue length does an incoming req see
system.mem_ctrls.wrQLenPdf::46                      0                       # What write queue length does an incoming req see
system.mem_ctrls.wrQLenPdf::47                      0                       # What write queue length does an incoming req see
system.mem_ctrls.wrQLenPdf::48                      0                       # What write queue length does an incoming req see
system.mem_ctrls.wrQLenPdf::49                      0                       # What write queue length does an incoming req see
system.mem_ctrls.wrQLenPdf::50                      0                       # What write queue length does an incoming req see
system.mem_ctrls.wrQLenPdf::51                      0                       # What write queue length does an incoming req see
system.mem_ctrls.wrQLenPdf::52                      0                       # What write queue length does an incoming req see
system.mem_ctrls.wrQLenPdf::53                      0                       # What write queue length does an incoming req see
system.mem_ctrls.wrQLenPdf::54                      0                       # What write queue length does an incoming req see
system.mem_ctrls.wrQLenPdf::55                      0                       # What write queue length does an incoming req see
system.mem_ctrls.wrQLenPdf::56                      0                       # What write queue length does an incoming req see
system.mem_ctrls.wrQLenPdf::57                      0                       # What write queue length does an incoming req see
system.mem_ctrls.wrQLenPdf::58                      0                       # What write queue length does an incoming req see
system.mem_ctrls.wrQLenPdf::59                      0                       # What write queue length does an incoming req see
system.mem_ctrls.wrQLenPdf::60                      0                       # What write queue length does an incoming req see
system.mem_ctrls.wrQLenPdf::61                      0                       # What write queue length does an incoming req see
system.mem_ctrls.wrQLenPdf::62                      0                       # What write queue length does an incoming req see
system.mem_ctrls.wrQLenPdf::63                      0                       # What write queue length does an incoming req see
system.mem_ctrls.bytesReadWrQ                       0                       # Total number of bytes read from write queue
system.mem_ctrls.bytesReadSys                   36032                       # Total read bytes from the system interface side
system.mem_ctrls.bytesWrittenSys                    0                       # Total written bytes from the system interface side
system.mem_ctrls.avgRdBWSys                    802.52                       # Average system read bandwidth in MiByte/s
system.mem_ctrls.avgWrBWSys                      0.00                       # Average system write bandwidth in MiByte/s
system.mem_ctrls.totGap                      44819000                       # Total gap between requests
system.mem_ctrls.avgGap                      79607.46                       # Average gap between requests
system.mem_ctrls.requestorReadBytes::.cpu.inst        24704                       # Per-requestor bytes read from memory
system.mem_ctrls.requestorReadBytes::.cpu.data        11328                       # Per-requestor bytes read from memory
system.mem_ctrls.requestorReadRate::.cpu.inst 550218826.909584999084                       # Per-requestor bytes read from memory rate (Bytes/sec)
system.mem_ctrls.requestorReadRate::.cpu.data 252302415.448177576065                       # Per-requestor bytes read from memory rate (Bytes/sec)
system.mem_ctrls.requestorReadAccesses::.cpu.inst          386                       # Per-requestor read serviced memory accesses
system.mem_ctrls.requestorReadAccesses::.cpu.data          177                       # Per-requestor read serviced memory accesses
system.mem_ctrls.requestorReadTotalLat::.cpu.inst      9297000                       # Per-requestor read total memory access latency
system.mem_ctrls.requestorReadTotalLat::.cpu.data      5454500                       # Per-requestor read total memory access latency
system.mem_ctrls.requestorReadAvgLat::.cpu.inst     24085.49                       # Per-requestor read average memory access latency
system.mem_ctrls.requestorReadAvgLat::.cpu.data     30816.38                       # Per-requestor read average memory access latency
system.mem_ctrls.dram.bytes_read::.cpu.inst        24704                       # Number of bytes read from this memory
system.mem_ctrls.dram.bytes_read::.cpu.data        11328                       # Number of bytes read from this memory
system.mem_ctrls.dram.bytes_read::total         36032                       # Number of bytes read from this memory
system.mem_ctrls.dram.bytes_inst_read::.cpu.inst        24704                       # Number of instructions bytes read from this memory
system.mem_ctrls.dram.bytes_inst_read::total        24704                       # Number of instructions bytes read from this memory
system.mem_ctrls.dram.num_reads::.cpu.inst          386                       # Number of read requests responded to by this memory
system.mem_ctrls.dram.num_reads::.cpu.data          177                       # Number of read requests responded to by this memory
system.mem_ctrls.dram.num_reads::total            563                       # Number of read requests responded to by this memory
system.mem_ctrls.dram.bw_read::.cpu.inst    550218827                       # Total read bandwidth from this memory (bytes/s)
system.mem_ctrls.dram.bw_read::.cpu.data    252302415                       # Total read bandwidth from this memory (bytes/s)
system.mem_ctrls.dram.bw_read::total        802521242                       # Total read bandwidth from this memory (bytes/s)
system.mem_ctrls.dram.bw_inst_read::.cpu.inst    550218827                       # Instruction read bandwidth from this memory (bytes/s)
system.mem_ctrls.dram.bw_inst_read::total    550218827                       # Instruction read bandwidth from this memory (bytes/s)
system.mem_ctrls.dram.bw_total::.cpu.inst    550218827                       # Total bandwidth to/from this memory (bytes/s)
system.mem_ctrls.dram.bw_total::.cpu.data    252302415                       # Total bandwidth to/from this memory (bytes/s)
system.mem_ctrls.dram.bw_total::total       802521242                       # Total bandwidth to/from this memory (bytes/s)
system.mem_ctrls.dram.readBursts                  563                       # Number of DRAM read bursts
system.mem_ctrls.dram.writeBursts                   0                       # Number of DRAM write bursts
system.mem_ctrls.dram.perBankRdBursts::0           91                       # Per bank write bursts
system.mem_ctrls.dram.perBankRdBursts::1           60                       # Per bank write bursts
system.mem_ctrls.dram.perBankRdBursts::2           68                       # Per bank write bursts
system.mem_ctrls.dram.perBankRdBursts::3           24                       # Per bank write bursts
system.mem_ctrls.dram.perBankRdBursts::4           52                       # Per bank write bursts
system.mem_ctrls.dram.perBankRdBursts::5           16                       # Per bank write bursts
system.mem_ctrls.dram.perBankRdBursts::6            4                       # Per bank write bursts
system.mem_ctrls.dram.perBankRdBursts::7           21                       # Per bank write bursts
system.mem_ctrls.dram.perBankRdBursts::8            4                       # Per bank write bursts
system.mem_ctrls.dram.perBankRdBursts::9            6                       # Per bank write bursts
system.mem_ctrls.dram.perBankRdBursts::10           25                       # Per bank write bursts
system.mem_ctrls.dram.perBankRdBursts::11           41                       # Per bank write bursts
system.mem_ctrls.dram.perBankRdBursts::12           60                       # Per bank write bursts
system.mem_ctrls.dram.perBankRdBursts::13           23                       # Per bank write bursts
system.mem_ctrls.dram.perBankRdBursts::14           27                       # Per bank write bursts
system.mem_ctrls.dram.perBankRdBursts::15           41                       # Per bank write bursts
system.mem_ctrls.dram.perBankWrBursts::0            0                       # Per bank write bursts
system.mem_ctrls.dram.perBankWrBursts::1            0                       # Per bank write bursts
system.mem_ctrls.dram.perBankWrBursts::2            0                       # Per bank write bursts
system.mem_ctrls.dram.perBankWrBursts::3            0                       # Per bank write bursts
system.mem_ctrls.dram.perBankWrBursts::4            0                       # Per bank write bursts
system.mem_ctrls.dram.perBankWrBursts::5            0                       # Per bank write bursts
system.mem_ctrls.dram.perBankWrBursts::6            0                       # Per bank write bursts
system.mem_ctrls.dram.perBankWrBursts::7            0                       # Per bank write bursts
system.mem_ctrls.dram.perBankWrBursts::8            0                       # Per bank write bursts
system.mem_ctrls.dram.perBankWrBursts::9            0                       # Per bank write bursts
system.mem_ctrls.dram.perBankWrBursts::10            0                       # Per bank write bursts
system.mem_ctrls.dram.perBankWrBursts::11            0                       # Per bank write bursts
system.mem_ctrls.dram.perBankWrBursts::12            0                       # Per bank write bursts
system.mem_ctrls.dram.perBankWrBursts::13            0                       # Per bank write bursts
system.mem_ctrls.dram.perBankWrBursts::14            0                       # Per bank write bursts
system.mem_ctrls.dram.perBankWrBursts::15            0                       # Per bank write bursts
system.mem_ctrls.dram.totQLat                 4195250                       # Total ticks spent queuing
system.mem_ctrls.dram.totBusLat               2815000                       # Total ticks spent in databus transfers
system.mem_ctrls.dram.totMemAccLat           14751500                       # Total ticks spent from burst creation until serviced by the DRAM
system.mem_ctrls.dram.avgQLat                 7451.60                       # Average queueing delay per DRAM burst
system.mem_ctrls.dram.avgBusLat               5000.00                       # Average bus latency per DRAM burst
system.mem_ctrls.dram.avgMemAccLat           26201.60                       # Average memory access latency per DRAM burst
system.mem_ctrls.dram.readRowHits                 439                       # Number of row buffer hits during reads
system.mem_ctrls.dram.writeRowHits                  0                       # Number of row buffer hits during writes
system.mem_ctrls.dram.readRowHitRate            77.98                       # Row buffer hit rate for reads
system.mem_ctrls.dram.writeRowHitRate             nan                       # Row buffer hit rate for writes
system.mem_ctrls.dram.bytesPerActivate::samples          114                       # Bytes accessed per row activation
system.mem_ctrls.dram.bytesPerActivate::mean   295.298246                       # Bytes accessed per row activation
system.mem_ctrls.dram.bytesPerActivate::gmean   196.273965                       # Bytes accessed per row activation
system.mem_ctrls.dram.bytesPerActivate::stdev   285.774214                       # Bytes accessed per row activation
system.mem_ctrls.dram.bytesPerActivate::0-127           31     27.19%     27.19% # Bytes accessed per row activation
system.mem_ctrls.dram.bytesPerActivate::128-255           34     29.82%     57.02% # Bytes accessed per row activation
system.mem_ctrls.dram.bytesPerActivate::256-383           17     14.91%     71.93% # Bytes accessed per row activation
system.mem_ctrls.dram.bytesPerActivate::384-511           11      9.65%     81.58% # Bytes accessed per row activation
system.mem_ctrls.dram.bytesPerActivate::512-639            7      6.14%     87.72% # Bytes accessed per row activation
system.mem_ctrls.dram.bytesPerActivate::640-767            2      1.75%     89.47% # Bytes accessed per row activation
system.mem_ctrls.dram.bytesPerActivate::768-895            1      0.88%     90.35% # Bytes accessed per row activation
system.mem_ctrls.dram.bytesPerActivate::1024-1151           11      9.65%    100.00% # Bytes accessed per row activation
system.mem_ctrls.dram.bytesPerActivate::total          114                       # Bytes accessed per row activation
system.mem_ctrls.dram.bytesRead                 36032                       # Total number of bytes read from DRAM
system.mem_ctrls.dram.bytesWritten                  0                       # Total number of bytes written to DRAM
system.mem_ctrls.dram.avgRdBW              802.521242                       # Average DRAM read bandwidth in MiBytes/s
system.mem_ctrls.dram.avgWrBW                       0                       # Average DRAM write bandwidth in MiBytes/s
system.mem_ctrls.dram.peakBW                 12800.00                       # Theoretical peak bandwidth in MiByte/s
system.mem_ctrls.dram.busUtil                    6.27                       # Data bus utilization in percentage
system.mem_ctrls.dram.busUtilRead                6.27                       # Data bus utilization in percentage for reads
system.mem_ctrls.dram.busUtilWrite               0.00                       # Data bus utilization in percentage for writes
system.mem_ctrls.dram.pageHitRate               77.98                       # Row buffer hit rate, read and write combined
system.mem_ctrls.dram.rank1.actEnergy          292740                       # Energy for activate commands per rank (pJ)
system.mem_ctrls.dram.rank1.preEnergy          136620                       # Energy for precharge commands per rank (pJ)
system.mem_ctrls.dram.rank1.readEnergy        1620780                       # Energy for read commands per rank (pJ)
system.mem_ctrls.dram.rank1.writeEnergy             0                       # Energy for write commands per rank (pJ)
system.mem_ctrls.dram.rank1.refreshEnergy 3073200.000000                       # Energy for refresh commands per rank (pJ)
system.mem_ctrls.dram.rank1.actBackEnergy     18507330                       # Energy for active background per rank (pJ)
system.mem_ctrls.dram.rank1.preBackEnergy      1656000                       # Energy for precharge background per rank (pJ)
system.mem_ctrls.dram.rank1.actPowerDownEnergy            0                       # Energy for active power-down per rank (pJ)
system.mem_ctrls.dram.rank1.prePowerDownEnergy            0                       # Energy for precharge power-down per rank (pJ)
system.mem_ctrls.dram.rank1.selfRefreshEnergy            0                       # Energy for self refresh per rank (pJ)
system.mem_ctrls.dram.rank1.totalEnergy      25286670                       # Total energy per rank (pJ)
system.mem_ctrls.dram.rank1.averagePower   563.196321                       # Core power per rank (mW)
system.mem_ctrls.dram.rank1.totalIdleTime            0                       # Total Idle time Per DRAM Rank
system.mem_ctrls.dram.rank1.pwrStateTime::IDLE      4172750                       # Time in different power states
system.mem_ctrls.dram.rank1.pwrStateTime::REF      1300000                       # Time in different power states
system.mem_ctrls.dram.rank1.pwrStateTime::SREF            0                       # Time in different power states
system.mem_ctrls.dram.rank1.pwrStateTime::PRE_PDN            0                       # Time in different power states
system.mem_ctrls.dram.rank1.pwrStateTime::ACT     39425750                       # Time in different power states
system.mem_ctrls.dram.rank1.pwrStateTime::ACT_PDN            0                       # Time in different power states
system.mem_ctrls.dram.rank0.actEnergy          592620                       # Energy for activate commands per rank (pJ)
system.mem_ctrls.dram.rank0.preEnergy          296010                       # Energy for precharge commands per rank (pJ)
system.mem_ctrls.dram.rank0.readEnergy        2399040                       # Energy for read commands per rank (pJ)
system.mem_ctrls.dram.rank0.writeEnergy             0                       # Energy for write commands per rank (pJ)
system.mem_ctrls.dram.rank0.refreshEnergy 3073200.000000                       # Energy for refresh commands per rank (pJ)
system.mem_ctrls.dram.rank0.actBackEnergy     20331330                       # Energy for active background per rank (pJ)
system.mem_ctrls.dram.rank0.preBackEnergy       120000                       # Energy for precharge background per rank (pJ)
system.mem_ctrls.dram.rank0.actPowerDownEnergy            0                       # Energy for active power-down per rank (pJ)
system.mem_ctrls.dram.rank0.prePowerDownEnergy            0                       # Energy for precharge power-down per rank (pJ)
system.mem_ctrls.dram.rank0.selfRefreshEnergy            0                       # Energy for self refresh per rank (pJ)
system.mem_ctrls.dram.rank0.totalEnergy      26812200                       # Total energy per rank (pJ)
system.mem_ctrls.dram.rank0.averagePower   597.173625                       # Core power per rank (mW)
system.mem_ctrls.dram.rank0.totalIdleTime            0                       # Total Idle time Per DRAM Rank
system.mem_ctrls.dram.rank0.pwrStateTime::IDLE       174250                       # Time in different power states
system.mem_ctrls.dram.rank0.pwrStateTime::REF      1300000                       # Time in different power states
system.mem_ctrls.dram.rank0.pwrStateTime::SREF            0                       # Time in different power states
system.mem_ctrls.dram.rank0.pwrStateTime::PRE_PDN            0                       # Time in different power states
system.mem_ctrls.dram.rank0.pwrStateTime::ACT     43424250                       # Time in different power states
system.mem_ctrls.dram.rank0.pwrStateTime::ACT_PDN            0                       # Time in different power states
system.mem_ctrls.dram.power_state.pwrStateResidencyTicks::UNDEFINED     44898500                       # Cumulative time (in ticks) in various power states
system.mem_ctrls.power_state.pwrStateResidencyTicks::UNDEFINED     44898500                       # Cumulative time (in ticks) in various power states
system.cpu_clk_domain.clock                       500                       # Clock period in ticks
system.cpu.thread-8087.numInsts                 11170                       # Number of Instructions committed
system.cpu.thread-8087.numOps                   12850                       # Number of Ops committed
system.cpu.thread-8087.numMemRefs                   0                       # Number of Memory References
system.cpu.icache.demand_hits::.cpu.inst         4145                       # number of demand (read+write) hits
system.cpu.icache.demand_hits::total             4145                       # number of demand (read+write) hits
system.cpu.icache.overall_hits::.cpu.inst         4145                       # number of overall hits
system.cpu.icache.overall_hits::total            4145                       # number of overall hits
system.cpu.icache.demand_misses::.cpu.inst          414                       # number of demand (read+write) misses
system.cpu.icache.demand_misses::total            414                       # number of demand (read+write) misses
system.cpu.icache.overall_misses::.cpu.inst          414                       # number of overall misses
system.cpu.icache.overall_misses::total           414                       # number of overall misses
system.cpu.icache.demand_miss_latency::.cpu.inst     30292000                       # number of demand (read+write) miss cycles
system.cpu.icache.demand_miss_latency::total     30292000                       # number of demand (read+write) miss cycles
system.cpu.icache.overall_miss_latency::.cpu.inst     30292000                       # number of overall miss cycles
system.cpu.icache.overall_miss_latency::total     30292000                       # number of overall miss cycles
system.cpu.icache.demand_accesses::.cpu.inst         4559                       # number of demand (read+write) accesses
system.cpu.icache.demand_accesses::total         4559                       # number of demand (read+write) accesses
system.cpu.icache.overall_accesses::.cpu.inst         4559                       # number of overall (read+write) accesses
system.cpu.icache.overall_accesses::total         4559                       # number of overall (read+write) accesses
system.cpu.icache.demand_miss_rate::.cpu.inst     0.090809                       # miss rate for demand accesses
system.cpu.icache.demand_miss_rate::total     0.090809                       # miss rate for demand accesses
system.cpu.icache.overall_miss_rate::.cpu.inst     0.090809                       # miss rate for overall accesses
system.cpu.icache.overall_miss_rate::total     0.090809                       # miss rate for overall accesses
system.cpu.icache.demand_avg_miss_latency::.cpu.inst 73169.082126                       # average overall miss latency
system.cpu.icache.demand_avg_miss_latency::total 73169.082126                       # average overall miss latency
system.cpu.icache.overall_avg_miss_latency::.cpu.inst 73169.082126                       # average overall miss latency
system.cpu.icache.overall_avg_miss_latency::total 73169.082126                       # average overall miss latency
system.cpu.icache.blocked_cycles::no_mshrs            0                       # number of cycles access was blocked
system.cpu.icache.blocked_cycles::no_targets            0                       # number of cycles access was blocked
system.cpu.icache.blocked::no_mshrs                 0                       # number of cycles access was blocked
system.cpu.icache.blocked::no_targets               0                       # number of cycles access was blocked
system.cpu.icache.avg_blocked_cycles::no_mshrs          nan                       # average number of cycles each access was blocked
system.cpu.icache.avg_blocked_cycles::no_targets          nan                       # average number of cycles each access was blocked
system.cpu.icache.writebacks::.writebacks          111                       # number of writebacks
system.cpu.icache.writebacks::total               111                       # number of writebacks
system.cpu.icache.demand_mshr_misses::.cpu.inst          414                       # number of demand (read+write) MSHR misses
system.cpu.icache.demand_mshr_misses::total          414                       # number of demand (read+write) MSHR misses
system.cpu.icache.overall_mshr_misses::.cpu.inst          414                       # number of overall MSHR misses
system.cpu.icache.overall_mshr_misses::total          414                       # number of overall MSHR misses
system.cpu.icache.demand_mshr_miss_latency::.cpu.inst     29878000                       # number of demand (read+write) MSHR miss cycles
system.cpu.icache.demand_mshr_miss_latency::total     29878000                       # number of demand (read+write) MSHR miss cycles
system.cpu.icache.overall_mshr_miss_latency::.cpu.inst     29878000                       # number of overall MSHR miss cycles
system.cpu.icache.overall_mshr_miss_latency::total     29878000                       # number of overall MSHR miss cycles
system.cpu.icache.demand_mshr_miss_rate::.cpu.inst     0.090809                       # mshr miss rate for demand accesses
system.cpu.icache.demand_mshr_miss_rate::total     0.090809                       # mshr miss rate for demand accesses
system.cpu.icache.overall_mshr_miss_rate::.cpu.inst     0.090809                       # mshr miss rate for overall accesses
system.cpu.icache.overall_mshr_miss_rate::total     0.090809                       # mshr miss rate for overall accesses
system.cpu.icache.demand_avg_mshr_miss_latency::.cpu.inst 72169.082126                       # average overall mshr miss latency
system.cpu.icache.demand_avg_mshr_miss_latency::total 72169.082126                       # average overall mshr miss latency
system.cpu.icache.overall_avg_mshr_miss_latency::.cpu.inst 72169.082126                       # average overall mshr miss latency
system.cpu.icache.overall_avg_mshr_miss_latency::total 72169.082126                       # average overall mshr miss latency
system.cpu.icache.replacements                    111                       # number of replacements
system.cpu.icache.ReadReq_hits::.cpu.inst         4145                       # number of ReadReq hits
system.cpu.icache.ReadReq_hits::total            4145                       # number of ReadReq hits
system.cpu.icache.ReadReq_misses::.cpu.inst          414                       # number of ReadReq misses
system.cpu.icache.ReadReq_misses::total           414                       # number of ReadReq misses
system.cpu.icache.ReadReq_miss_latency::.cpu.inst     30292000                       # number of ReadReq miss cycles
system.cpu.icache.ReadReq_miss_latency::total     30292000                       # number of ReadReq miss cycles
system.cpu.icache.ReadReq_accesses::.cpu.inst         4559                       # number of ReadReq accesses(hits+misses)
system.cpu.icache.ReadReq_accesses::total         4559                       # number of ReadReq accesses(hits+misses)
system.cpu.icache.ReadReq_miss_rate::.cpu.inst     0.090809                       # miss rate for ReadReq accesses
system.cpu.icache.ReadReq_miss_rate::total     0.090809                       # miss rate for ReadReq accesses
system.cpu.icache.ReadReq_avg_miss_latency::.cpu.inst 73169.082126                       # average ReadReq miss latency
system.cpu.icache.ReadReq_avg_miss_latency::total 73169.082126                       # average ReadReq miss latency
system.cpu.icache.ReadReq_mshr_misses::.cpu.inst          414                       # number of ReadReq MSHR misses
system.cpu.icache.ReadReq_mshr_misses::total          414                       # number of ReadReq MSHR misses
system.cpu.icache.ReadReq_mshr_miss_latency::.cpu.inst     29878000                       # number of ReadReq MSHR miss cycles
system.cpu.icache.ReadReq_mshr_miss_latency::total     29878000                       # number of ReadReq MSHR miss cycles
system.cpu.icache.ReadReq_mshr_miss_rate::.cpu.inst     0.090809                       # mshr miss rate for ReadReq accesses
system.cpu.icache.ReadReq_mshr_miss_rate::total     0.090809                       # mshr miss rate for ReadReq accesses
system.cpu.icache.ReadReq_avg_mshr_miss_latency::.cpu.inst 72169.082126                       # average ReadReq mshr miss latency
system.cpu.icache.ReadReq_avg_mshr_miss_latency::total 72169.082126                       # average ReadReq mshr miss latency
system.cpu.icache.power_state.pwrStateResidencyTicks::UNDEFINED     44898500                       # Cumulative time (in ticks) in various power states
system.cpu.icache.tags.tagsinuse           169.972318                       # Cycle average of tags in use
system.cpu.icache.tags.total_refs                4559                       # Total number of references to valid blocks.
system.cpu.icache.tags.sampled_refs               414                       # Sample count of references to valid blocks.
system.cpu.icache.tags.avg_refs             11.012077                       # Average number of references to valid blocks.
system.cpu.icache.tags.warmup_cycle             87500                       # Cycle when the warmup percentage was hit.
system.cpu.icache.tags.occ_blocks::.cpu.inst   169.972318                       # Average occupied blocks per requestor
system.cpu.icache.tags.occ_percent::.cpu.inst     0.331977                       # Average percentage of cache occupancy
system.cpu.icache.tags.occ_percent::total     0.331977                       # Average percentage of cache occupancy
system.cpu.icache.tags.occ_task_id_blocks::1024          303                       # Occupied blocks per task id
system.cpu.icache.tags.age_task_id_blocks_1024::0           94                       # Occupied blocks per task id
system.cpu.icache.tags.age_task_id_blocks_1024::1          209                       # Occupied blocks per task id
system.cpu.icache.tags.occ_task_id_percent::1024     0.591797                       # Percentage of cache occupancy per task id
system.cpu.icache.tags.tag_accesses              9532                       # Number of tag accesses
system.cpu.icache.tags.data_accesses             9532                       # Number of data accesses
system.cpu.icache.tags.power_state.pwrStateResidencyTicks::UNDEFINED     44898500                       # Cumulative time (in ticks) in various power states
system.cpu.dtb.instHits                             0                       # ITB inst hits
system.cpu.dtb.instMisses                           0                       # ITB inst misses
system.cpu.dtb.readHits                             0                       # DTB read hits
system.cpu.dtb.readMisses                           0                       # DTB read misses
system.cpu.dtb.writeHits                            0                       # DTB write hits
system.cpu.dtb.writeMisses                          0                       # DTB write misses
system.cpu.dtb.inserts                              0                       # Number of times an entry is inserted into the TLB
system.cpu.dtb.flushTlb                             0                       # Number of times complete TLB was flushed
system.cpu.dtb.flushTlbMva                          0                       # Number of times TLB was flushed by MVA
system.cpu.dtb.flushTlbMvaAsid                      0                       # Number of times TLB was flushed by MVA & ASID
system.cpu.dtb.flushTlbAsid                         0                       # Number of times TLB was flushed by ASID
system.cpu.dtb.flushedEntries                       0                       # Number of entries that have been flushed from TLB
system.cpu.dtb.alignFaults                          0                       # Number of TLB faults due to alignment restrictions
system.cpu.dtb.prefetchFaults                       0                       # Number of TLB faults due to prefetch
system.cpu.dtb.domainFaults                         0                       # Number of TLB faults due to domain restrictions
system.cpu.dtb.permsFaults                          0                       # Number of TLB faults due to permissions restrictions
system.cpu.dtb.readAccesses                         0                       # DTB read accesses
system.cpu.dtb.writeAccesses                        0                       # DTB write accesses
[...]
system.cpu.dcache.ReadReq_mshr_miss_rate::.cpu.data     0.051376                       # mshr miss rate for ReadReq accesses
system.cpu.dcache.ReadReq_mshr_miss_rate::total     0.051376                       # mshr miss rate for ReadReq accesses
system.cpu.dcache.ReadReq_avg_mshr_miss_latency::.cpu.data 72053.571429                       # average ReadReq mshr miss latency
system.cpu.dcache.ReadReq_avg_mshr_miss_latency::total 72053.571429                       # average ReadReq mshr miss latency
system.cpu.dcache.WriteReq_hits::.cpu.data         1701                       # number of WriteReq hits
system.cpu.dcache.WriteReq_hits::total           1701                       # number of WriteReq hits
system.cpu.dcache.WriteReq_misses::.cpu.data          122                       # number of WriteReq misses
system.cpu.dcache.WriteReq_misses::total          122                       # number of WriteReq misses
system.cpu.dcache.WriteReq_miss_latency::.cpu.data     10228500                       # number of WriteReq miss cycles
system.cpu.dcache.WriteReq_miss_latency::total     10228500                       # number of WriteReq miss cycles
system.cpu.dcache.WriteReq_accesses::.cpu.data         1823                       # number of WriteReq accesses(hits+misses)
system.cpu.dcache.WriteReq_accesses::total         1823                       # number of WriteReq accesses(hits+misses)
system.cpu.dcache.WriteReq_miss_rate::.cpu.data     0.066923                       # miss rate for WriteReq accesses
system.cpu.dcache.WriteReq_miss_rate::total     0.066923                       # miss rate for WriteReq accesses
system.cpu.dcache.WriteReq_avg_miss_latency::.cpu.data 83840.163934                       # average WriteReq miss latency
system.cpu.dcache.WriteReq_avg_miss_latency::total 83840.163934                       # average WriteReq miss latency
system.cpu.dcache.WriteReq_mshr_hits::.cpu.data           50                       # number of WriteReq MSHR hits
system.cpu.dcache.WriteReq_mshr_hits::total           50                       # number of WriteReq MSHR hits
system.cpu.dcache.WriteReq_mshr_misses::.cpu.data           72                       # number of WriteReq MSHR misses
system.cpu.dcache.WriteReq_mshr_misses::total           72                       # number of WriteReq MSHR misses
system.cpu.dcache.WriteReq_mshr_miss_latency::.cpu.data      6090000                       # number of WriteReq MSHR miss cycles
system.cpu.dcache.WriteReq_mshr_miss_latency::total      6090000                       # number of WriteReq MSHR miss cycles
system.cpu.dcache.WriteReq_mshr_miss_rate::.cpu.data     0.039495                       # mshr miss rate for WriteReq accesses
system.cpu.dcache.WriteReq_mshr_miss_rate::total     0.039495                       # mshr miss rate for WriteReq accesses
system.cpu.dcache.WriteReq_avg_mshr_miss_latency::.cpu.data 84583.333333                       # average WriteReq mshr miss latency
system.cpu.dcache.WriteReq_avg_mshr_miss_latency::total 84583.333333                       # average WriteReq mshr miss latency
system.cpu.dcache.SoftPFReq_hits::.cpu.data           23                       # number of SoftPFReq hits
system.cpu.dcache.SoftPFReq_hits::total            23                       # number of SoftPFReq hits
system.cpu.dcache.SoftPFReq_misses::.cpu.data           10                       # number of SoftPFReq misses
system.cpu.dcache.SoftPFReq_misses::total           10                       # number of SoftPFReq misses
system.cpu.dcache.SoftPFReq_accesses::.cpu.data           33                       # number of SoftPFReq accesses(hits+misses)
system.cpu.dcache.SoftPFReq_accesses::total           33                       # number of SoftPFReq accesses(hits+misses)
system.cpu.dcache.SoftPFReq_miss_rate::.cpu.data     0.303030                       # miss rate for SoftPFReq accesses
system.cpu.dcache.SoftPFReq_miss_rate::total     0.303030                       # miss rate for SoftPFReq accesses
system.cpu.dcache.SoftPFReq_mshr_misses::.cpu.data            8                       # number of SoftPFReq MSHR misses
system.cpu.dcache.SoftPFReq_mshr_misses::total            8                       # number of SoftPFReq MSHR misses
system.cpu.dcache.SoftPFReq_mshr_miss_latency::.cpu.data       872000                       # number of SoftPFReq MSHR miss cycles
system.cpu.dcache.SoftPFReq_mshr_miss_latency::total       872000                       # number of SoftPFReq MSHR miss cycles
system.cpu.dcache.SoftPFReq_mshr_miss_rate::.cpu.data     0.242424                       # mshr miss rate for SoftPFReq accesses
system.cpu.dcache.SoftPFReq_mshr_miss_rate::total     0.242424                       # mshr miss rate for SoftPFReq accesses
system.cpu.dcache.SoftPFReq_avg_mshr_miss_latency::.cpu.data       109000                       # average SoftPFReq mshr miss latency
system.cpu.dcache.SoftPFReq_avg_mshr_miss_latency::total       109000                       # average SoftPFReq mshr miss latency
system.cpu.dcache.LoadLockedReq_hits::.cpu.data           17                       # number of LoadLockedReq hits
system.cpu.dcache.LoadLockedReq_hits::total           17                       # number of LoadLockedReq hits
system.cpu.dcache.LoadLockedReq_misses::.cpu.data            1                       # number of LoadLockedReq misses
system.cpu.dcache.LoadLockedReq_misses::total            1                       # number of LoadLockedReq misses
system.cpu.dcache.LoadLockedReq_miss_latency::.cpu.data        77000                       # number of LoadLockedReq miss cycles
system.cpu.dcache.LoadLockedReq_miss_latency::total        77000                       # number of LoadLockedReq miss cycles
system.cpu.dcache.LoadLockedReq_accesses::.cpu.data           18                       # number of LoadLockedReq accesses(hits+misses)
system.cpu.dcache.LoadLockedReq_accesses::total           18                       # number of LoadLockedReq accesses(hits+misses)
system.cpu.dcache.LoadLockedReq_miss_rate::.cpu.data     0.055556                       # miss rate for LoadLockedReq accesses
system.cpu.dcache.LoadLockedReq_miss_rate::total     0.055556                       # miss rate for LoadLockedReq accesses
system.cpu.dcache.LoadLockedReq_avg_miss_latency::.cpu.data        77000                       # average LoadLockedReq miss latency
system.cpu.dcache.LoadLockedReq_avg_miss_latency::total        77000                       # average LoadLockedReq miss latency
system.cpu.dcache.LoadLockedReq_mshr_misses::.cpu.data            1                       # number of LoadLockedReq MSHR misses
system.cpu.dcache.LoadLockedReq_mshr_misses::total            1                       # number of LoadLockedReq MSHR misses
system.cpu.dcache.LoadLockedReq_mshr_miss_latency::.cpu.data        76000                       # number of LoadLockedReq MSHR miss cycles
system.cpu.dcache.LoadLockedReq_mshr_miss_latency::total        76000                       # number of LoadLockedReq MSHR miss cycles
system.cpu.dcache.LoadLockedReq_mshr_miss_rate::.cpu.data     0.055556                       # mshr miss rate for LoadLockedReq accesses
system.cpu.dcache.LoadLockedReq_mshr_miss_rate::total     0.055556                       # mshr miss rate for LoadLockedReq accesses
system.cpu.dcache.LoadLockedReq_avg_mshr_miss_latency::.cpu.data        76000                       # average LoadLockedReq mshr miss latency
system.cpu.dcache.LoadLockedReq_avg_mshr_miss_latency::total        76000                       # average LoadLockedReq mshr miss latency
system.cpu.dcache.StoreCondReq_hits::.cpu.data           18                       # number of StoreCondReq hits
system.cpu.dcache.StoreCondReq_hits::total           18                       # number of StoreCondReq hits
system.cpu.dcache.StoreCondReq_accesses::.cpu.data           18                       # number of StoreCondReq accesses(hits+misses)
system.cpu.dcache.StoreCondReq_accesses::total           18                       # number of StoreCondReq accesses(hits+misses)
system.cpu.dcache.power_state.pwrStateResidencyTicks::UNDEFINED     44898500                       # Cumulative time (in ticks) in various power states
system.cpu.dcache.tags.tagsinuse           106.727398                       # Cycle average of tags in use
system.cpu.dcache.tags.total_refs                4013                       # Total number of references to valid blocks.
system.cpu.dcache.tags.sampled_refs               193                       # Sample count of references to valid blocks.
system.cpu.dcache.tags.avg_refs             20.792746                       # Average number of references to valid blocks.
system.cpu.dcache.tags.warmup_cycle            176500                       # Cycle when the warmup percentage was hit.
system.cpu.dcache.tags.occ_blocks::.cpu.data   106.727398                       # Average occupied blocks per requestor
system.cpu.dcache.tags.occ_percent::.cpu.data     0.104226                       # Average percentage of cache occupancy
system.cpu.dcache.tags.occ_percent::total     0.104226                       # Average percentage of cache occupancy
system.cpu.dcache.tags.occ_task_id_blocks::1024          193                       # Occupied blocks per task id
system.cpu.dcache.tags.age_task_id_blocks_1024::0           30                       # Occupied blocks per task id
system.cpu.dcache.tags.age_task_id_blocks_1024::1          163                       # Occupied blocks per task id
system.cpu.dcache.tags.occ_task_id_percent::1024     0.188477                       # Percentage of cache occupancy per task id
system.cpu.dcache.tags.tag_accesses              8337                       # Number of tag accesses
system.cpu.dcache.tags.data_accesses             8337                       # Number of data accesses
system.cpu.dcache.tags.power_state.pwrStateResidencyTicks::UNDEFINED     44898500                       # Cumulative time (in ticks) in various power states
system.cpu.power_state.pwrStateResidencyTicks::ON     44898500                       # Cumulative time (in ticks) in various power states
system.cpu.branchPred.lookups                    3902                       # Number of BP lookups
system.cpu.branchPred.condPredicted              2647                       # Number of conditional branches predicted
system.cpu.branchPred.condIncorrect               597                       # Number of conditional branches incorrect
system.cpu.branchPred.BTBLookups                 1764                       # Number of BTB lookups
system.cpu.branchPred.BTBHits                     801                       # Number of BTB hits
system.cpu.branchPred.BTBHitPct             45.408163                       # BTB Hit Percentage
system.cpu.branchPred.RASUsed                     319                       # Number of times the RAS was used to get a target.
system.cpu.branchPred.RASIncorrect                  2                       # Number of incorrect RAS predictions.
system.cpu.branchPred.indirectLookups             195                       # Number of indirect predictor lookups.
system.cpu.branchPred.indirectHits                 60                       # Number of indirect target hits.
system.cpu.branchPred.indirectMisses              135                       # Number of indirect misses.
system.cpu.branchPred.indirectMispredicted           67                       # Number of mispredicted indirect branches.
system.cpu.fetch2.intInstructions               10994                       # Number of integer instructions successfully decoded
system.cpu.fetch2.fpInstructions                    0                       # Number of floating point instructions successfully decoded
system.cpu.fetch2.vecInstructions                   0                       # Number of SIMD instructions successfully decoded
system.cpu.fetch2.loadInstructions               2660                       # Number of memory load instructions successfully decoded
system.cpu.fetch2.storeInstructions              1470                       # Number of memory store instructions successfully decoded
system.cpu.fetch2.amoInstructions                   0                       # Number of memory atomic instructions successfully decoded
system.cpu.itb.instHits                             0                       # ITB inst hits
system.cpu.itb.instMisses                           0                       # ITB inst misses
system.cpu.itb.readHits                             0                       # DTB read hits
system.cpu.itb.readMisses                           0                       # DTB read misses
system.cpu.itb.writeHits                            0                       # DTB write hits
system.cpu.itb.writeMisses                          0                       # DTB write misses
system.cpu.itb.inserts                              0                       # Number of times an entry is inserted into the TLB
system.cpu.itb.flushTlb                             0                       # Number of times complete TLB was flushed
system.cpu.itb.flushTlbMva                          0                       # Number of times TLB was flushed by MVA
system.cpu.itb.flushTlbMvaAsid                      0                       # Number of times TLB was flushed by MVA & ASID
system.cpu.itb.flushTlbAsid                         0                       # Number of times TLB was flushed by ASID
system.cpu.itb.flushedEntries                       0                       # Number of entries that have been flushed from TLB
system.cpu.itb.alignFaults                          0                       # Number of TLB faults due to alignment restrictions
system.cpu.itb.prefetchFaults                       0                       # Number of TLB faults due to prefetch
system.cpu.itb.domainFaults                         0                       # Number of TLB faults due to domain restrictions
system.cpu.itb.permsFaults                          0                       # Number of TLB faults due to permissions restrictions
system.cpu.itb.readAccesses                         0                       # DTB read accesses
system.cpu.itb.writeAccesses                        0                       # DTB write accesses
system.cpu.itb.instAccesses                         0                       # ITB inst accesses
system.cpu.itb.hits                                 0                       # Total TLB (inst and data) hits
system.cpu.itb.misses                               0                       # Total TLB (inst and data) misses
system.cpu.itb.accesses                             0                       # Total TLB (inst and data) accesses
system.cpu.itb.walker.walks                         0                       # Table walker walks requested
system.cpu.itb.walker.requestOrigin_Requested::Data            0                       # Table walker requests started/completed, data/inst
system.cpu.itb.walker.requestOrigin_Requested::Inst            0                       # Table walker requests started/completed, data/inst
system.cpu.itb.walker.requestOrigin_Requested::total            0                       # Table walker requests started/completed, data/inst
system.cpu.itb.walker.requestOrigin_Completed::Data            0                       # Table walker requests started/completed, data/inst
system.cpu.itb.walker.requestOrigin_Completed::Inst            0                       # Table walker requests started/completed, data/inst
system.cpu.itb.walker.requestOrigin_Completed::total            0                       # Table walker requests started/completed, data/inst
system.cpu.itb.walker.requestOrigin::total            0                       # Table walker requests started/completed, data/inst
system.cpu.itb.walker.power_state.pwrStateResidencyTicks::UNDEFINED     44898500                       # Cumulative time (in ticks) in various power states
system.cpu.itb.stage2_mmu.stage2_tlb.instHits            0                       # ITB inst hits
system.cpu.itb.stage2_mmu.stage2_tlb.instMisses            0                       # ITB inst misses
system.cpu.itb.stage2_mmu.stage2_tlb.readHits            0                       # DTB read hits
system.cpu.itb.stage2_mmu.stage2_tlb.readMisses            0                       # DTB read misses
system.cpu.itb.stage2_mmu.stage2_tlb.writeHits            0                       # DTB write hits
system.cpu.itb.stage2_mmu.stage2_tlb.writeMisses            0                       # DTB write misses
system.cpu.itb.stage2_mmu.stage2_tlb.inserts            0                       # Number of times an entry is inserted into the TLB
system.cpu.itb.stage2_mmu.stage2_tlb.flushTlb            0                       # Number of times complete TLB was flushed
system.cpu.itb.stage2_mmu.stage2_tlb.flushTlbMva            0                       # Number of times TLB was flushed by MVA
system.cpu.itb.stage2_mmu.stage2_tlb.flushTlbMvaAsid            0                       # Number of times TLB was flushed by MVA & ASID
system.cpu.itb.stage2_mmu.stage2_tlb.flushTlbAsid            0                       # Number of times TLB was flushed by ASID
system.cpu.itb.stage2_mmu.stage2_tlb.flushedEntries            0                       # Number of entries that have been flushed from TLB
system.cpu.itb.stage2_mmu.stage2_tlb.alignFaults            0                       # Number of TLB faults due to alignment restrictions
system.cpu.itb.stage2_mmu.stage2_tlb.prefetchFaults            0                       # Number of TLB faults due to prefetch
system.cpu.itb.stage2_mmu.stage2_tlb.domainFaults            0                       # Number of TLB faults due to domain restrictions
system.cpu.itb.stage2_mmu.stage2_tlb.permsFaults            0                       # Number of TLB faults due to permissions restrictions
system.cpu.itb.stage2_mmu.stage2_tlb.readAccesses            0                       # DTB read accesses
system.cpu.itb.stage2_mmu.stage2_tlb.writeAccesses            0                       # DTB write accesses
system.cpu.itb.stage2_mmu.stage2_tlb.instAccesses            0                       # ITB inst accesses
system.cpu.itb.stage2_mmu.stage2_tlb.hits            0                       # Total TLB (inst and data) hits
system.cpu.itb.stage2_mmu.stage2_tlb.misses            0                       # Total TLB (inst and data) misses
system.cpu.itb.stage2_mmu.stage2_tlb.accesses            0                       # Total TLB (inst and data) accesses
system.cpu.itb.stage2_mmu.stage2_tlb.walker.walks            0                       # Table walker walks requested
system.cpu.itb.stage2_mmu.stage2_tlb.walker.requestOrigin_Requested::Data            0                       # Table walker requests started/completed, data/inst
system.cpu.itb.stage2_mmu.stage2_tlb.walker.requestOrigin_Requested::Inst            0                       # Table walker requests started/completed, data/inst
system.cpu.itb.stage2_mmu.stage2_tlb.walker.requestOrigin_Requested::total            0                       # Table walker requests started/completed, data/inst
system.cpu.itb.stage2_mmu.stage2_tlb.walker.requestOrigin_Completed::Data            0                       # Table walker requests started/completed, data/inst
system.cpu.itb.stage2_mmu.stage2_tlb.walker.requestOrigin_Completed::Inst            0                       # Table walker requests started/completed, data/inst
system.cpu.itb.stage2_mmu.stage2_tlb.walker.requestOrigin_Completed::total            0                       # Table walker requests started/completed, data/inst
system.cpu.itb.stage2_mmu.stage2_tlb.walker.requestOrigin::total            0                       # Table walker requests started/completed, data/inst
system.cpu.itb.stage2_mmu.stage2_tlb.walker.power_state.pwrStateResidencyTicks::UNDEFINED     44898500                       # Cumulative time (in ticks) in various power states

---------- End Simulation Statistics   ----------
