
---------- Begin Simulation Statistics ----------
final_tick                                   89304000                       # Number of ticks from beginning of simulation (restored from checkpoints and never reset)
host_inst_rate                                 649763                       # Simulator instruction rate (inst/s)
host_mem_usage                                 672876                       # Number of bytes of host memory used
host_op_rate                                   725628                       # Simulator op (including micro ops) rate (op/s)
host_seconds                                     0.06                       # Real time elapsed on the host
host_tick_rate                             1468348357                       # Simulator tick rate (ticks/s)
sim_freq                                 1000000000000                       # Frequency of simulated ticks
sim_insts                                       39441                       # Number of instructions simulated
sim_ops                                         44120                       # Number of ops (including micro ops) simulated
sim_seconds                                  0.000089                       # Number of seconds simulated
sim_ticks                                    89304000                       # Number of ticks simulated
system.cpu.Branches                              8185                       # Number of branches fetched
system.cpu.committedInsts                       39441                       # Number of instructions committed
system.cpu.committedOps                         44120                       # Number of ops (including micro ops) committed
system.cpu.idle_fraction                     0.000000                       # Percentage of idle cycles
system.cpu.not_idle_fraction                 1.000000                       # Percentage of non-idle cycles
system.cpu.numCycles                           178608                       # number of cpu cycles simulated
system.cpu.numWorkItemsCompleted                    0                       # number of work items this cpu completed
system.cpu.numWorkItemsStarted                      0                       # number of work items this cpu started
system.cpu.num_busy_cycles               178607.998000                       # Number of busy cycles
system.cpu.num_cc_register_reads               149190                       # number of times the CC registers were read
system.cpu.num_cc_register_writes               23494                       # number of times the CC registers were written
system.cpu.num_conditional_control_insts         5045                       # number of instructions that are conditional controls
system.cpu.num_fp_alu_accesses                      0                       # Number of float alu accesses
system.cpu.num_fp_insts                             0                       # number of float instructions
system.cpu.num_fp_register_reads                    0                       # number of times the floating registers were read
system.cpu.num_fp_register_writes                   0                       # number of times the floating registers were written
system.cpu.num_func_calls                        2456                       # number of times a function call or return occured
system.cpu.num_idle_cycles                   0.002000                       # Number of idle cycles
system.cpu.num_int_alu_accesses                 36320                       # Number of integer alu accesses
system.cpu.num_int_insts                        36320                       # number of integer instructions
system.cpu.num_int_register_reads               57022                       # number of times the integer registers were read
system.cpu.num_int_register_writes              23808                       # number of times the integer registers were written
system.cpu.num_load_insts                        6277                       # Number of load instructions
system.cpu.num_mem_refs                         11034                       # number of memory refs
system.cpu.num_store_insts                       4757                       # Number of store instructions
system.cpu.num_vec_alu_accesses                     0                       # Number of vector alu accesses
system.cpu.num_vec_insts                            0                       # number of vector instructions
system.cpu.num_vec_register_reads                  42                       # number of times the vector registers were read
system.cpu.num_vec_register_writes                 13                       # number of times the vector registers were written
system.cpu.op_class::No_OpClass                     0      0.00%      0.00% # Class of executed instruction
system.cpu.op_class::IntAlu                     32714     73.82%     73.82% # Class of executed instruction
system.cpu.op_class::IntMult                      544      1.23%     75.05% # Class of executed instruction
system.cpu.op_class::IntDiv                         0      0.00%     75.05% # Class of executed instruction
system.cpu.op_class::FloatAdd                       0      0.00%     75.05% # Class of executed instruction
system.cpu.op_class::FloatCmp                       0      0.00%     75.05% # Class of executed instruction
system.cpu.op_class::FloatCvt                       0      0.00%     75.05% # Class of executed instruction
system.cpu.op_class::FloatMult                      0      0.00%     75.05% # Class of executed instruction
system.cpu.op_class::FloatMultAcc                   0      0.00%     75.05% # Class of executed instruction
system.cpu.op_class::FloatDiv                       0      0.00%     75.05% # Class of executed instruction
system.cpu.op_class::FloatMisc                      0      0.00%     75.05% # Class of executed instruction
system.cpu.op_class::FloatSqrt                      0      0.00%     75.05% # Class of executed instruction
system.cpu.op_class::SimdAdd                        0      0.00%     75.05% # Class of executed instruction
system.cpu.op_class::SimdAddAcc                     0      0.00%     75.05% # Class of executed instruction
system.cpu.op_class::SimdAlu                        0      0.00%     75.05% # Class of executed instruction
system.cpu.op_class::SimdCmp                        0      0.00%     75.05% # Class of executed instruction
system.cpu.op_class::SimdCvt                        0      0.00%     75.05% # Class of executed instruction
system.cpu.op_class::SimdMisc                       0      0.00%     75.05% # Class of executed instruction
system.cpu.op_class::SimdMult                       0      0.00%     75.05% # Class of executed instruction
system.cpu.op_class::SimdMultAcc                    0      0.00%     75.05% # Class of executed instruction
system.cpu.op_class::SimdShift                      0      0.00%     75.05% # Class of executed instruction
system.cpu.op_class::SimdShiftAcc                   0      0.00%     75.05% # Class of executed instruction
system.cpu.op_class::SimdDiv                        0      0.00%     75.05% # Class of executed instruction
system.cpu.op_class::SimdSqrt                       0      0.00%     75.05% # Class of executed instruction
system.cpu.op_class::SimdFloatAdd                   0      0.00%     75.05% # Class of executed instruction
system.cpu.op_class::SimdFloatAlu                   0      0.00%     75.05% # Class of executed instruction
system.cpu.op_class::SimdFloatCmp                   0      0.00%     75.05% # Class of executed instruction
system.cpu.op_class::SimdFloatCvt                   0      0.00%     75.05% # Class of executed instruction
system.cpu.op_class::SimdFloatDiv                   0      0.00%     75.05% # Class of executed instruction
system.cpu.op_class::SimdFloatMisc                 21      0.05%     75.10% # Class of executed instruction
system.cpu.op_class::SimdFloatMult                  0      0.00%     75.10% # Class of executed instruction
system.cpu.op_class::SimdFloatMultAcc               0      0.00%     75.10% # Class of executed instruction
system.cpu.op_class::SimdFloatSqrt                  0      0.00%     75.10% # Class of executed instruction
system.cpu.op_class::SimdReduceAdd                  0      0.00%     75.10% # Class of executed instruction
system.cpu.op_class::SimdReduceAlu                  0      0.00%     75.10% # Class of executed instruction
system.cpu.op_class::SimdReduceCmp                  0      0.00%     75.10% # Class of executed instruction
system.cpu.op_class::SimdFloatReduceAdd             0      0.00%     75.10% # Class of executed instruction
system.cpu.op_class::SimdFloatReduceCmp             0      0.00%     75.10% # Class of executed instruction
system.cpu.op_class::SimdAes                        0      0.00%     75.10% # Class of executed instruction
system.cpu.op_class::SimdAesMix                     0      0.00%     75.10% # Class of executed instruction
system.cpu.op_class::SimdSha1Hash                   0      0.00%     75.10% # Class of executed instruction
system.cpu.op_class::SimdSha1Hash2                  0      0.00%     75.10% # Class of executed instruction
system.cpu.op_class::SimdSha256Hash                 0      0.00%     75.10% # Class of executed instruction
system.cpu.op_class::SimdSha256Hash2                0      0.00%     75.10% # Class of executed instruction
system.cpu.op_class::SimdShaSigma2                  0      0.00%     75.10% # Class of executed instruction
system.cpu.op_class::SimdShaSigma3                  0      0.00%     75.10% # Class of executed instruction
system.cpu.op_class::SimdPredAlu                    0      0.00%     75.10% # Class of executed instruction
system.cpu.op_class::MemRead                     6277     14.17%     89.27% # Class of executed instruction
system.cpu.op_class::MemWrite                    4757     10.73%    100.00% # Class of executed instruction
system.cpu.op_class::FloatMemRead                   0      0.00%    100.00% # Class of executed instruction
system.cpu.op_class::FloatMemWrite                  0      0.00%    100.00% # Class of executed instruction
system.cpu.op_class::IprAccess                      0      0.00%    100.00% # Class of executed instruction
system.cpu.op_class::InstPrefetch                   0      0.00%    100.00% # Class of executed instruction
system.cpu.op_class::total                      44313                       # Class of executed instruction
system.cpu.workload.numSyscalls                    12                       # Number of system calls
system.membus.snoop_filter.hit_multi_requests            0                       # Number of requests hitting in the snoop filter with multiple (>1) holders of the requested data.
system.membus.snoop_filter.hit_multi_snoops            0                       # Number of snoops hitting in the snoop filter with multiple (>1) holders of the requested data.
system.membus.snoop_filter.hit_single_requests           53                       # Number of requests hitting in the snoop filter with a single holder of the requested data.
system.membus.snoop_filter.hit_single_snoops            0                       # Number of snoops hitting in the snoop filter with a single holder of the requested data.
system.membus.snoop_filter.tot_requests           503                       # Total number of requests made to the snoop filter.
system.membus.snoop_filter.tot_snoops               0                       # Total number of snoops made to the snoop filter.
system.membus.trans_dist::ReadResp                398                       # Transaction distribution
system.membus.trans_dist::WritebackClean           38                       # Transaction distribution
system.membus.trans_dist::ReadExReq                67                       # Transaction distribution
system.membus.trans_dist::ReadExResp               67                       # Transaction distribution
system.membus.trans_dist::ReadCleanReq            299                       # Transaction distribution
system.membus.trans_dist::ReadSharedReq            99                       # Transaction distribution
system.membus.pkt_count_system.cpu.icache.mem_side_port::system.mem_ctrls.port          636                       # Packet count per connected requestor and responder (bytes)
system.membus.pkt_count_system.cpu.dcache.mem_side_port::system.mem_ctrls.port          332                       # Packet count per connected requestor and responder (bytes)
system.membus.pkt_count::total                    968                       # Packet count per connected requestor and responder (bytes)
system.membus.pkt_size_system.cpu.icache.mem_side_port::system.mem_ctrls.port        21568                       # Cumulative packet size per connected requestor and responder (bytes)
system.membus.pkt_size_system.cpu.dcache.mem_side_port::system.mem_ctrls.port        10624                       # Cumulative packet size per connected requestor and responder (bytes)
system.membus.pkt_size::total                   32192                       # Cumulative packet size per connected requestor and responder (bytes)
system.membus.snoops                                0                       # Total snoops (count)
system.membus.snoopTraffic                          0                       # Total snoop traffic (bytes)
system.membus.snoop_fanout::samples               465                       # Request fanout histogram
system.membus.snoop_fanout::mean             0.032258                       # Request fanout histogram
system.membus.snoop_fanout::stdev            0.176875                       # Request fanout histogram
system.membus.snoop_fanout::underflows              0      0.00%      0.00% # Request fanout histogram
system.membus.snoop_fanout::0                     450     96.77%     96.77% # Request fanout histogram
system.membus.snoop_fanout::1                      15      3.23%    100.00% # Request fanout histogram
system.membus.snoop_fanout::2                       0      0.00%    100.00% # Request fanout histogram
system.membus.snoop_fanout::overflows               0      0.00%    100.00% # Request fanout histogram
system.membus.snoop_fanout::min_value               0                       # Request fanout histogram
system.membus.snoop_fanout::max_value               1                       # Request fanout histogram
system.membus.snoop_fanout::total                 465                       # Request fanout histogram
system.membus.reqLayer0.occupancy             1595500                       # Layer occupancy (ticks)
system.membus.reqLayer0.utilization               1.8                       # Layer utilization (%)
system.membus.respLayer1.occupancy            3368750                       # Layer occupancy (ticks)
system.membus.respLayer1.utilization              3.8                       # Layer utilization (%)
system.membus.respLayer2.occupancy            1868000                       # Layer occupancy (ticks)
system.membus.respLayer2.utilization              2.1                       # Layer utilization (%)
system.membus.power_state.pwrStateResidencyTicks::UNDEFINED     89304000                       # Cumulative time (in ticks) in various power states
system.voltage_domain.voltage                       1                       # Voltage in Volts
system.clk_domain.clock                          2000                       # Clock period in ticks
system.cpu_voltage_domain.voltage                   1                       # Voltage in Volts
system.mem_ctrls.avgPriority_.writebacks::samples        38.00                       # Average QoS priority value for accepted requests
system.mem_ctrls.avgPriority_.cpu.inst::samples       296.00                       # Average QoS priority value for accepted requests
system.mem_ctrls.avgPriority_.cpu.data::samples       166.00                       # Average QoS priority value for accepted requests
system.mem_ctrls.priorityMinLatency      0.000000018750                       # per QoS priority minimum request to response latency (s)
system.mem_ctrls.priorityMaxLatency      0.000038489750                       # per QoS priority maximum request to response latency (s)
system.mem_ctrls.numReadWriteTurnArounds            1                       # Number of turnarounds from READ to WRITE
system.mem_ctrls.numWriteReadTurnArounds            1                       # Number of turnarounds from WRITE to READ
system.mem_ctrls.numStayReadState                 983                       # Number of times bus staying in READ state
system.mem_ctrls.numStayWriteState                 15                       # Number of times bus staying in WRITE state
system.mem_ctrls.readReqs                         465                       # Number of read requests accepted
system.mem_ctrls.writeReqs                         38                       # Number of write requests accepted
system.mem_ctrls.readBursts                       465                       # Number of controller read bursts, including those serviced by the write queue
system.mem_ctrls.writeBursts                       38                       # Number of controller write bursts, including those merged in the write queue
system.mem_ctrls.servicedByWrQ                      3                       # Number of controller read bursts serviced by the write queue
system.mem_ctrls.mergedWrBursts                     0                       # Number of controller write bursts merged with an existing one
system.mem_ctrls.neitherReadNorWriteReqs            0                       # Number of requests that are neither read nor write
system.mem_ctrls.avgRdQLen                       1.01                       # Average read queue length when enqueuing
system.mem_ctrls.avgWrQLen                      12.93                       # Average write queue length when enqueuing
system.mem_ctrls.numRdRetry                         0                       # Number of times read queue was full causing retry
system.mem_ctrls.numWrRetry                         0                       # Number of times write queue was full causing retry
system.mem_ctrls.readPktSize::0                     0                       # Read request sizes (log2)
system.mem_ctrls.readPktSize::1                     0                       # Read request sizes (log2)
system.mem_ctrls.readPktSize::2                     0                       # Read request sizes (log2)
system.mem_ctrls.readPktSize::3                     0                       # Read request sizes (log2)
system.mem_ctrls.readPktSize::4                     0                       # Read request sizes (log2)
system.mem_ctrls.readPktSize::5                     0                       # Read request sizes (log2)
system.mem_ctrls.readPktSize::6                   465                       # Read request sizes (log2)
system.mem_ctrls.writePktSize::0                    0                       # Write request sizes (log2)
system.mem_ctrls.writePktSize::1                    0                       # Write request sizes (log2)
system.mem_ctrls.writePktSize::2                    0                       # Write request sizes (log2)
system.mem_ctrls.writePktSize::3                    0                       # Write request sizes (log2)
system.mem_ctrls.writePktSize::4                    0                       # Write request sizes (log2)
system.mem_ctrls.writePktSize::5                    0                       # Write request sizes (log2)
system.mem_ctrls.writePktSize::6                   38                       # Write request sizes (log2)
system.mem_ctrls.rdQLenPdf::0                     458                       # What read queue length does an incoming req see
system.mem_ctrls.rdQLenPdf::1                       4                       # What read queue length does an incoming req see
system.mem_ctrls.rdQLenPdf::2                       0                       # What read queue length does an incoming req see
system.mem_ctrls.rdQLenPdf::3                       0                       # What read queue length does an incoming req see
system.mem_ctrls.rdQLenPdf::4                       0                       # What read queue length does an incoming req see
system.mem_ctrls.rdQLenPdf::5                       0                       # What read queue length does an incoming req see
system.mem_ctrls.rdQLenPdf::6                       0                       # What read queue length does an incoming req see
system.mem_ctrls.rdQLenPdf::7                       0                       # What read queue length does an incoming req see
system.mem_ctrls.rdQLenPdf::8                       0                       # What read queue length does an incoming req see
system.mem_ctrls.rdQLenPdf::9                       0                       # What read queue length does an incoming req see
system.mem_ctrls.rdQLenPdf::10                      0                       # What read queue length does an incoming req see
system.mem_ctrls.rdQLenPdf::11                      0                       # What read queue length does an incoming req see
system.mem_ctrls.rdQLenPdf::12                      0                       # What read queue length does an incoming req see
system.mem_ctrls.rdQLenPdf::13                      0                       # What read queue length does an incoming req see
system.mem_ctrls.rdQLenPdf::14                      0                       # What read queue length does an incoming req see
system.mem_ctrls.rdQLenPdf::15                      0                       # What read queue length does an incoming req see
system.mem_ctrls.rdQLenPdf::16                      0                       # What read queue length does an incoming req see
system.mem_ctrls.rdQLenPdf::17                      0                       # What read queue length does an incoming req see
system.mem_ctrls.rdQLenPdf::18                      0                       # What read queue length does an incoming req see
system.mem_ctrls.rdQLenPdf::19                      0                       # What read queue length does an incoming req see
system.mem_ctrls.rdQLenPdf::20                      0                       # What read queue length does an incoming req see
system.mem_ctrls.rdQLenPdf::21                      0                       # What read queue length does an incoming req see
system.mem_ctrls.rdQLenPdf::22                      0                       # What read queue length does an incoming req see
system.mem_ctrls.rdQLenPdf::23                      0                       # What read queue length does an incoming req see
system.mem_ctrls.rdQLenPdf::24                      0                       # What read queue length does an incoming req see
system.mem_ctrls.rdQLenPdf::25                      0                       # What read queue length does an incoming req see
system.mem_ctrls.rdQLenPdf::26                      0                       # What read queue length does an incoming req see
system.mem_ctrls.rdQLenPdf::27                      0                       # What read queue length does an incoming req see
system.mem_ctrls.rdQLenPdf::28                      0                       # What read queue length does an incoming req see
system.mem_ctrls.rdQLenPdf::29                      0                       # What read queue length does an incoming req see
system.mem_ctrls.rdQLenPdf::30                      0                       # What read queue length does an incoming req see
system.mem_ctrls.rdQLenPdf::31                      0                       # What read queue length does an incoming req see
system.mem_ctrls.wrQLenPdf::0                       1                       # What write queue length does an incoming req see
system.mem_ctrls.wrQLenPdf::1                       1                       # What write queue length does an incoming req see
system.mem_ctrls.wrQLenPdf::2                       1                       # What write queue length does an incoming req see
system.mem_ctrls.wrQLenPdf::3                       1                       # What write queue length does an incoming req see
system.mem_ctrls.wrQLenPdf::4                       1                       # What write queue length does an incoming req see
system.mem_ctrls.wrQLenPdf::5                       1                       # What write queue length does an incoming req see
system.mem_ctrls.wrQLenPdf::6                       1                       # What write queue length does an incoming req see
system.mem_ctrls.wrQLenPdf::7                       1                       # What write queue length does an incoming req see
system.mem_ctrls.wrQLenPdf::8                       1                       # What write queue length does an incoming req see
system.mem_ctrls.wrQLenPdf::9                       1                       # What write queue length does an incoming req see
system.mem_ctrls.wrQLenPdf::10                      1                       # What write queue length does an incoming req see
system.mem_ctrls.wrQLenPdf::11                      1                       # What write queue length does an incoming req see
system.mem_ctrls.wrQLenPdf::12                      1                       # What write queue length does an incoming req see
system.mem_ctrls.wrQLenPdf::13                      1                       # What write queue length does an incoming req see
system.mem_ctrls.wrQLenPdf::14                      1                       # What write queue length does an incoming req see
system.mem_ctrls.wrQLenPdf::15                      1                       # What write queue length does an incoming req see
system.mem_ctrls.wrQLenPdf::16                      1                       # What write queue length does an incoming req see
system.mem_ctrls.wrQLenPdf::17                      2                       # What write queue length does an incoming req see
system.mem_ctrls.wrQLenPdf::18                      2                       # What write queue length does an incoming req see
system.mem_ctrls.wrQLenPdf::19                      2                       # What write queue length does an incoming req see
system.mem_ctrls.wrQLenPdf::20                      2                       # What write queue length does an incoming req see
system.mem_ctrls.wrQLenPdf::21                      2                       # What write queue length does an incoming req see
system.mem_ctrls.wrQLenPdf::22                      1                       # What write queue length does an incoming req see
system.mem_ctrls.wrQLenPdf::23                      1                       # What write queue length does an incoming req see
system.mem_ctrls.wrQLenPdf::24                      1                       # What write queue length does an incoming req see
system.mem_ctrls.wrQLenPdf::25                      1                       # What write queue length does an incoming req see
system.mem_ctrls.wrQLenPdf::26                      1                       # What write queue length does an incoming req see
system.mem_ctrls.wrQLenPdf::27                      1                       # What write queue length does an incoming req see
system.mem_ctrls.wrQLenPdf::28                      1                       # What write queue length does an incoming req see
system.mem_ctrls.wrQLenPdf::29                      1                       # What write queue length does an incoming req see
system.mem_ctrls.wrQLenPdf::30                      1                       # What write queue length does an incoming req see
system.mem_ctrls.wrQLenPdf::31                      1                       # What write queue length does an incoming req see
system.mem_ctrls.wrQLenPdf::32                      1                       # What write queue length does an incoming req see
system.mem_ctrls.wrQLenPdf::33                      0                       # What write queue length does an incoming req see
system.mem_ctrls.wrQLenPdf::34                      0                       # What write queue length does an incoming req see
system.mem_ctrls.wrQLenPdf::35                      0                       # What write queue length does an incoming req see
system.mem_ctrls.wrQLenPdf::36                      0                       # What write queue length does an incoming req see
system.mem_ctrls.wrQLenPdf::37                      0                       # What write queue length does an incoming req see
system.mem_ctrls.wrQLenPdf::38                      0                       # What write queue length does an incoming req see
system.mem_ctrls.wrQLenPdf::39                      0                       # What write queue length does an incoming req see
system.mem_ctrls.wrQLenPdf::40                      0                       # What write queue length does an incoming req see
system.mem_ctrls.wrQLenPdf::41                      0                       # What write queue length does an incoming req see
system.mem_ctrls.wrQLenPdf::42                      0                       # What write queue length does an incoming req see
system.mem_ctrls.wrQLenPdf::43                      0                       # What write queue length does an incoming req see
system.mem_ctrls.wrQLenPdf::44                      0                       # What write queue length does an incoming req see
system.mem_ctrls.wrQLenPdf::45                      0                       # What write queue length does an incoming req see
system.mem_ctrls.wrQLenPdf::46                      0                       # What write queue length does an incoming req see
system.mem_ctrls.wrQLenPdf::47                      0                       # What write queue length does an incoming req see
system.mem_ctrls.wrQLenPdf::48                      0                       # What write queue length does an incoming req see
system.mem_ctrls.wrQLenPdf::49                      0                       # What write queue length does an incoming req see
system.mem_ctrls.wrQLenPdf::50                      0                       # What write queue length does an incoming req see
system.mem_ctrls.wrQLenPdf::51                      0                       # What write queue length does an incoming req see
system.mem_ctrls.wrQLenPdf::52                      0                       # What write queue length does an incoming req see
system.mem_ctrls.wrQLenPdf::53                      0                       # What write queue length does an incoming req see
system.mem_ctrls.wrQLenPdf::54                      0                       # What write queue length does an incoming req see
system.mem_ctrls.wrQLenPdf::55                      0                       # What write queue length does an incoming req see
system.mem_ctrls.wrQLenPdf::56                      0                       # What write queue length does an incoming req see
system.mem_ctrls.wrQLenPdf::57                      0                       # What write queue length does an incoming req see
system.mem_ctrls.wrQLenPdf::58                      0                       # What write queue length does an incoming req see
system.mem_ctrls.wrQLenPdf::59                      0                       # What write queue length does an incoming req see
system.mem_ctrls.wrQLenPdf::60                      0                       # What write queue length does an incoming req see
system.mem_ctrls.wrQLenPdf::61                      0                       # What write queue length does an incoming req see
system.mem_ctrls.wrQLenPdf::62                      0                       # What write queue length does an incoming req see
system.mem_ctrls.wrQLenPdf::63                      0                       # What write queue length does an incoming req see
system.mem_ctrls.rdPerTurnAround::samples            1                       # Reads before turning the bus around for writes
system.mem_ctrls.rdPerTurnAround::mean            397                       # Reads before turning the bus around for writes
system.mem_ctrls.rdPerTurnAround::gmean    397.000000                       # Reads before turning the bus around for writes
system.mem_ctrls.rdPerTurnAround::stdev           nan                       # Reads before turning the bus around for writes
system.mem_ctrls.rdPerTurnAround::384-399            1    100.00%    100.00% # Reads before turning the bus around for writes
system.mem_ctrls.rdPerTurnAround::total             1                       # Reads before turning the bus around for writes
system.mem_ctrls.wrPerTurnAround::samples            1                       # Writes before turning the bus around for reads
system.mem_ctrls.wrPerTurnAround::mean             16                       # Writes before turning the bus around for reads
system.mem_ctrls.wrPerTurnAround::gmean     16.000000                       # Writes before turning the bus around for reads
system.mem_ctrls.wrPerTurnAround::stdev           nan                       # Writes before turning the bus around for reads
system.mem_ctrls.wrPerTurnAround::16                1    100.00%    100.00% # Writes before turning the bus around for reads
system.mem_ctrls.wrPerTurnAround::total             1                       # Writes before turning the bus around for reads
system.mem_ctrls.bytesReadWrQ                     192                       # Total number of bytes read from write queue
system.mem_ctrls.bytesReadSys                   29760                       # Total read bytes from the system interface side
system.mem_ctrls.bytesWrittenSys                 2432                       # Total written bytes from the system interface side
system.mem_ctrls.avgRdBWSys                    333.24                       # Average system read bandwidth in MiByte/s
system.mem_ctrls.avgWrBWSys                     27.23                       # Average system write bandwidth in MiByte/s
system.mem_ctrls.totGap                      89195500                       # Total gap between requests
system.mem_ctrls.avgGap                     177327.04                       # Average gap between requests
system.mem_ctrls.requestorReadBytes::.cpu.inst        18944                       # Per-requestor bytes read from memory
system.mem_ctrls.requestorReadBytes::.cpu.data        10624                       # Per-requestor bytes read from memory
system.mem_ctrls.requestorWriteBytes::.writebacks         1024                       # Per-requestor bytes write to memory
system.mem_ctrls.requestorReadRate::.cpu.inst 212129355.907910078764                       # Per-requestor bytes read from memory rate (Bytes/sec)
system.mem_ctrls.requestorReadRate::.cpu.data 118964436.083490103483                       # Per-requestor bytes read from memory rate (Bytes/sec)
system.mem_ctrls.requestorWriteRate::.writebacks 11466451.670697841793                       # Per-requestor bytes write to memory rate (Bytes/sec)
system.mem_ctrls.requestorReadAccesses::.cpu.inst          299                       # Per-requestor read serviced memory accesses
system.mem_ctrls.requestorReadAccesses::.cpu.data          166                       # Per-requestor read serviced memory accesses
system.mem_ctrls.requestorWriteAccesses::.writebacks           38                       # Per-requestor write serviced memory accesses
system.mem_ctrls.requestorReadTotalLat::.cpu.inst      7449250                       # Per-requestor read total memory access latency
system.mem_ctrls.requestorReadTotalLat::.cpu.data      4500250                       # Per-requestor read total memory access latency
system.mem_ctrls.requestorWriteTotalLat::.writebacks    119338000                       # Per-requestor write total memory access latency
system.mem_ctrls.requestorReadAvgLat::.cpu.inst     24913.88                       # Per-requestor read average memory access latency
system.mem_ctrls.requestorReadAvgLat::.cpu.data     27109.94                       # Per-requestor read average memory access latency
system.mem_ctrls.requestorWriteAvgLat::.writebacks   3140473.68                       # Per-requestor write average memory access latency
system.mem_ctrls.dram.bytes_read::.cpu.inst        19136                       # Number of bytes read from this memory
system.mem_ctrls.dram.bytes_read::.cpu.data        10624                       # Number of bytes read from this memory
system.mem_ctrls.dram.bytes_read::total         29760                       # Number of bytes read from this memory
system.mem_ctrls.dram.bytes_inst_read::.cpu.inst        19136                       # Number of instructions bytes read from this memory
system.mem_ctrls.dram.bytes_inst_read::total        19136                       # Number of instructions bytes read from this memory
system.mem_ctrls.dram.num_reads::.cpu.inst          299                       # Number of read requests responded to by this memory
system.mem_ctrls.dram.num_reads::.cpu.data          166                       # Number of read requests responded to by this memory
system.mem_ctrls.dram.num_reads::total            465                       # Number of read requests responded to by this memory
system.mem_ctrls.dram.bw_read::.cpu.inst    214279316                       # Total read bandwidth from this memory (bytes/s)
system.mem_ctrls.dram.bw_read::.cpu.data    118964436                       # Total read bandwidth from this memory (bytes/s)
system.mem_ctrls.dram.bw_read::total        333243752                       # Total read bandwidth from this memory (bytes/s)
system.mem_ctrls.dram.bw_inst_read::.cpu.inst    214279316                       # Instruction read bandwidth from this memory (bytes/s)
system.mem_ctrls.dram.bw_inst_read::total    214279316                       # Instruction read bandwidth from this memory (bytes/s)
system.mem_ctrls.dram.bw_total::.cpu.inst    214279316                       # Total bandwidth to/from this memory (bytes/s)
system.mem_ctrls.dram.bw_total::.cpu.data    118964436                       # Total bandwidth to/from this memory (bytes/s)
system.mem_ctrls.dram.bw_total::total       333243752                       # Total bandwidth to/from this memory (bytes/s)
system.mem_ctrls.dram.readBursts                  462                       # Number of DRAM read bursts
system.mem_ctrls.dram.writeBursts                  16                       # Number of DRAM write bursts
system.mem_ctrls.dram.perBankRdBursts::0           50                       # Per bank write bursts
system.mem_ctrls.dram.perBankRdBursts::1            1                       # Per bank write bursts
system.mem_ctrls.dram.perBankRdBursts::2           19                       # Per bank write bursts
system.mem_ctrls.dram.perBankRdBursts::3           27                       # Per bank write bursts
system.mem_ctrls.dram.perBankRdBursts::4           15                       # Per bank write bursts
system.mem_ctrls.dram.perBankRdBursts::5           19                       # Per bank write bursts
system.mem_ctrls.dram.perBankRdBursts::6           47                       # Per bank write bursts
system.mem_ctrls.dram.perBankRdBursts::7           29                       # Per bank write bursts
system.mem_ctrls.dram.perBankRdBursts::8           51                       # Per bank write bursts
system.mem_ctrls.dram.perBankRdBursts::9           72                       # Per bank write bursts
system.mem_ctrls.dram.perBankRdBursts::10           40                       # Per bank write bursts
system.mem_ctrls.dram.perBankRdBursts::11           57                       # Per bank write bursts
system.mem_ctrls.dram.perBankRdBursts::12           19                       # Per bank write bursts
system.mem_ctrls.dram.perBankRdBursts::13            7                       # Per bank write bursts
system.mem_ctrls.dram.perBankRdBursts::14            9                       # Per bank write bursts
system.mem_ctrls.dram.perBankRdBursts::15            0                       # Per bank write bursts
system.mem_ctrls.dram.perBankWrBursts::0            9                       # Per bank write bursts
system.mem_ctrls.dram.perBankWrBursts::1            0                       # Per bank write bursts
system.mem_ctrls.dram.perBankWrBursts::2            3                       # Per bank write bursts
system.mem_ctrls.dram.perBankWrBursts::3            0                       # Per bank write bursts
system.mem_ctrls.dram.perBankWrBursts::4            0                       # Per bank write bursts
system.mem_ctrls.dram.perBankWrBursts::5            0                       # Per bank write bursts
system.mem_ctrls.dram.perBankWrBursts::6            0                       # Per bank write bursts
system.mem_ctrls.dram.perBankWrBursts::7            4                       # Per bank write bursts
system.mem_ctrls.dram.perBankWrBursts::8            0                       # Per bank write bursts
system.mem_ctrls.dram.perBankWrBursts::9            0                       # Per bank write bursts
system.mem_ctrls.dram.perBankWrBursts::10            0                       # Per bank write bursts
system.mem_ctrls.dram.perBankWrBursts::11            0                       # Per bank write bursts
system.mem_ctrls.dram.perBankWrBursts::12            0                       # Per bank write bursts
system.mem_ctrls.dram.perBankWrBursts::13            0                       # Per bank write bursts
system.mem_ctrls.dram.perBankWrBursts::14            0                       # Per bank write bursts
system.mem_ctrls.dram.perBankWrBursts::15            0                       # Per bank write bursts
system.mem_ctrls.dram.totQLat                 3287000                       # Total ticks spent queuing
system.mem_ctrls.dram.totBusLat               2310000                       # Total ticks spent in databus transfers
system.mem_ctrls.dram.totMemAccLat           11949500                       # Total ticks spent from burst creation until serviced by the DRAM
system.mem_ctrls.dram.avgQLat                 7114.72                       # Average queueing delay per DRAM burst
system.mem_ctrls.dram.avgBusLat               5000.00                       # Average bus latency per DRAM burst
system.mem_ctrls.dram.avgMemAccLat           25864.72                       # Average memory access latency per DRAM burst
system.mem_ctrls.dram.readRowHits                 355                       # Number of row buffer hits during reads
system.mem_ctrls.dram.writeRowHits                 14                       # Number of row buffer hits during writes
system.mem_ctrls.dram.readRowHitRate            76.84                       # Row buffer hit rate for reads
system.mem_ctrls.dram.writeRowHitRate           87.50                       # Row buffer hit rate for writes
system.mem_ctrls.dram.bytesPerActivate::samples          102                       # Bytes accessed per row activation
system.mem_ctrls.dram.bytesPerActivate::mean          288                       # Bytes accessed per row activation
system.mem_ctrls.dram.bytesPerActivate::gmean   188.914547                       # Bytes accessed per row activation
system.mem_ctrls.dram.bytesPerActivate::stdev   287.171526                       # Bytes accessed per row activation
system.mem_ctrls.dram.bytesPerActivate::0-127           29     28.43%     28.43% # Bytes accessed per row activation
system.mem_ctrls.dram.bytesPerActivate::128-255           29     28.43%     56.86% # Bytes accessed per row activation
system.mem_ctrls.dram.bytesPerActivate::256-383           20     19.61%     76.47% # Bytes accessed per row activation
system.mem_ctrls.dram.bytesPerActivate::384-511            6      5.88%     82.35% # Bytes accessed per row activation
system.mem_ctrls.dram.bytesPerActivate::512-639            2      1.96%     84.31% # Bytes accessed per row activation
system.mem_ctrls.dram.bytesPerActivate::640-767            5      4.90%     89.22% # Bytes accessed per row activation
system.mem_ctrls.dram.bytesPerActivate::768-895            2      1.96%     91.18% # Bytes accessed per row activation
system.mem_ctrls.dram.bytesPerActivate::1024-1151            9      8.82%    100.00% # Bytes accessed per row activation
system.mem_ctrls.dram.bytesPerActivate::total          102                       # Bytes accessed per row activation
system.mem_ctrls.dram.bytesRead                 29568                       # Total number of bytes read from DRAM
system.mem_ctrls.dram.bytesWritten               1024                       # Total number of bytes written to DRAM
system.mem_ctrls.dram.avgRdBW              331.093792                       # Average DRAM read bandwidth in MiBytes/s
system.mem_ctrls.dram.avgWrBW               11.466452                       # Average DRAM write bandwidth in MiBytes/s
system.mem_ctrls.dram.peakBW                 12800.00                       # Theoretical peak bandwidth in MiByte/s
system.mem_ctrls.dram.busUtil                    2.68                       # Data bus utilization in percentage
system.mem_ctrls.dram.busUtilRead                2.59                       # Data bus utilization in percentage for reads
system.mem_ctrls.dram.busUtilWrite               0.09                       # Data bus utilization in percentage for writes
system.mem_ctrls.dram.pageHitRate               77.20                       # Row buffer hit rate, read and write combined
system.mem_ctrls.dram.rank1.actEnergy          449820                       # Energy for activate commands per rank (pJ)
system.mem_ctrls.dram.rank1.preEnergy          223905                       # Energy for precharge commands per rank (pJ)
system.mem_ctrls.dram.rank1.readEnergy        1820700                       # Energy for read commands per rank (pJ)
system.mem_ctrls.dram.rank1.writeEnergy             0                       # Energy for write commands per rank (pJ)
system.mem_ctrls.dram.rank1.refreshEnergy 6761040.000000                       # Energy for refresh commands per rank (pJ)
system.mem_ctrls.dram.rank1.actBackEnergy     23314710                       # Energy for active background per rank (pJ)
system.mem_ctrls.dram.rank1.preBackEnergy     14659680                       # Energy for precharge background per rank (pJ)
system.mem_ctrls.dram.rank1.actPowerDownEnergy            0                       # Energy for active power-down per rank (pJ)
system.mem_ctrls.dram.rank1.prePowerDownEnergy            0                       # Energy for precharge power-down per rank (pJ)
system.mem_ctrls.dram.rank1.selfRefreshEnergy            0                       # Energy for self refresh per rank (pJ)
system.mem_ctrls.dram.rank1.totalEnergy      47229855                       # Total energy per rank (pJ)
system.mem_ctrls.dram.rank1.averagePower   528.866064                       # Core power per rank (mW)
system.mem_ctrls.dram.rank1.totalIdleTime            0                       # Total Idle time Per DRAM Rank
system.mem_ctrls.dram.rank1.pwrStateTime::IDLE     37913750                       # Time in different power states
system.mem_ctrls.dram.rank1.pwrStateTime::REF      2860000                       # Time in different power states
system.mem_ctrls.dram.rank1.pwrStateTime::SREF            0                       # Time in different power states
system.mem_ctrls.dram.rank1.pwrStateTime::PRE_PDN            0                       # Time in different power states
system.mem_ctrls.dram.rank1.pwrStateTime::ACT     48530250                       # Time in different power states
system.mem_ctrls.dram.rank1.pwrStateTime::ACT_PDN            0                       # Time in different power states
system.mem_ctrls.dram.rank0.actEnergy          328440                       # Energy for activate commands per rank (pJ)
system.mem_ctrls.dram.rank0.preEnergy          163185                       # Energy for precharge commands per rank (pJ)
system.mem_ctrls.dram.rank0.readEnergy        1477980                       # Energy for read commands per rank (pJ)
system.mem_ctrls.dram.rank0.writeEnergy         83520                       # Energy for write commands per rank (pJ)
system.mem_ctrls.dram.rank0.refreshEnergy 6761040.000000                       # Energy for refresh commands per rank (pJ)
system.mem_ctrls.dram.rank0.actBackEnergy     26217720                       # Energy for active background per rank (pJ)
system.mem_ctrls.dram.rank0.preBackEnergy     12215040                       # Energy for precharge background per rank (pJ)
system.mem_ctrls.dram.rank0.actPowerDownEnergy            0                       # Energy for active power-down per rank (pJ)
system.mem_ctrls.dram.rank0.prePowerDownEnergy            0                       # Energy for precharge power-down per rank (pJ)
system.mem_ctrls.dram.rank0.selfRefreshEnergy            0                       # Energy for self refresh per rank (pJ)
system.mem_ctrls.dram.rank0.totalEnergy      47246925                       # Total energy per rank (pJ)
system.mem_ctrls.dram.rank0.averagePower   529.057209                       # Core power per rank (mW)
system.mem_ctrls.dram.rank0.totalIdleTime            0                       # Total Idle time Per DRAM Rank
system.mem_ctrls.dram.rank0.pwrStateTime::IDLE     31532500                       # Time in different power states
system.mem_ctrls.dram.rank0.pwrStateTime::REF      2860000                       # Time in different power states
system.mem_ctrls.dram.rank0.pwrStateTime::SREF            0                       # Time in different power states
system.mem_ctrls.dram.rank0.pwrStateTime::PRE_PDN            0                       # Time in different power states
system.mem_ctrls.dram.rank0.pwrStateTime::ACT     54911500                       # Time in different power states
system.mem_ctrls.dram.rank0.pwrStateTime::ACT_PDN            0                       # Time in different power states
system.mem_ctrls.dram.power_state.pwrStateResidencyTicks::UNDEFINED     89304000                       # Cumulative time (in ticks) in various power states
system.mem_ctrls.power_state.pwrStateResidencyTicks::UNDEFINED     89304000                       # Cumulative time (in ticks) in various power states
system.cpu_clk_domain.clock                       500                       # Clock period in ticks
system.cpu.icache.demand_hits::.cpu.inst        45149                       # number of demand (read+write) hits
system.cpu.icache.demand_hits::total            45149                       # number of demand (read+write) hits
system.cpu.icache.overall_hits::.cpu.inst        45149                       # number of overall hits
system.cpu.icache.overall_hits::total           45149                       # number of overall hits
system.cpu.icache.demand_misses::.cpu.inst          299                       # number of demand (read+write) misses
system.cpu.icache.demand_misses::total            299                       # number of demand (read+write) misses
system.cpu.icache.overall_misses::.cpu.inst          299                       # number of overall misses
system.cpu.icache.overall_misses::total           299                       # number of overall misses
system.cpu.icache.demand_miss_latency::.cpu.inst     20519500                       # number of demand (read+write) miss cycles
system.cpu.icache.demand_miss_latency::total     20519500                       # number of demand (read+write) miss cycles
system.cpu.icache.overall_miss_latency::.cpu.inst     20519500                       # number of overall miss cycles
system.cpu.icache.overall_miss_latency::total     20519500                       # number of overall miss cycles
system.cpu.icache.demand_accesses::.cpu.inst        45448                       # number of demand (read+write) accesses
system.cpu.icache.demand_accesses::total        45448                       # number of demand (read+write) accesses
system.cpu.icache.overall_accesses::.cpu.inst        45448                       # number of overall (read+write) accesses
system.cpu.icache.overall_accesses::total        45448                       # number of overall (read+write) accesses
system.cpu.icache.demand_miss_rate::.cpu.inst     0.006579                       # miss rate for demand accesses
system.cpu.icache.demand_miss_rate::total     0.006579                       # miss rate for demand accesses
system.cpu.icache.overall_miss_rate::.cpu.inst     0.006579                       # miss rate for overall accesses
system.cpu.icache.overall_miss_rate::total     0.006579                       # miss rate for overall accesses
system.cpu.icache.demand_avg_miss_latency::.cpu.inst 68627.090301                       # average overall miss latency
system.cpu.icache.demand_avg_miss_latency::total 68627.090301                       # average overall miss latency
system.cpu.icache.overall_avg_miss_latency::.cpu.inst 68627.090301                       # average overall miss latency
system.cpu.icache.overall_avg_miss_latency::total 68627.090301                       # average overall miss latency
system.cpu.icache.blocked_cycles::no_mshrs            0                       # number of cycles access was blocked
system.cpu.icache.blocked_cycles::no_targets            0                       # number of cycles access was blocked
system.cpu.icache.blocked::no_mshrs                 0                       # number of cycles access was blocked
system.cpu.icache.blocked::no_targets               0                       # number of cycles access was blocked
system.cpu.icache.avg_blocked_cycles::no_mshrs          nan                       # average number of cycles each access was blocked
system.cpu.icache.avg_blocked_cycles::no_targets          nan                       # average number of cycles each access was blocked
system.cpu.icache.writebacks::.writebacks           38                       # number of writebacks
system.cpu.icache.writebacks::total                38                       # number of writebacks
system.cpu.icache.demand_mshr_misses::.cpu.inst          299                       # number of demand (read+write) MSHR misses
system.cpu.icache.demand_mshr_misses::total          299                       # number of demand (read+write) MSHR misses
system.cpu.icache.overall_mshr_misses::.cpu.inst          299                       # number of overall MSHR misses
system.cpu.icache.overall_mshr_misses::total          299                       # number of overall MSHR misses
system.cpu.icache.demand_mshr_miss_latency::.cpu.inst     20220500                       # number of demand (read+write) MSHR miss cycles
system.cpu.icache.demand_mshr_miss_latency::total     20220500                       # number of demand (read+write) MSHR miss cycles
system.cpu.icache.overall_mshr_miss_latency::.cpu.inst     20220500                       # number of overall MSHR miss cycles
system.cpu.icache.overall_mshr_miss_latency::total     20220500                       # number of overall MSHR miss cycles
system.cpu.icache.demand_mshr_miss_rate::.cpu.inst     0.006579                       # mshr miss rate for demand accesses
system.cpu.icache.demand_mshr_miss_rate::total     0.006579                       # mshr miss rate for demand accesses
system.cpu.icache.overall_mshr_miss_rate::.cpu.inst     0.006579                       # mshr miss rate for overall accesses
system.cpu.icache.overall_mshr_miss_rate::total     0.006579                       # mshr miss rate for overall accesses
system.cpu.icache.demand_avg_mshr_miss_latency::.cpu.inst 67627.090301                       # average overall mshr miss latency
system.cpu.icache.demand_avg_mshr_miss_latency::total 67627.090301                       # average overall mshr miss latency
system.cpu.icache.overall_avg_mshr_miss_latency::.cpu.inst 67627.090301                       # average overall mshr miss latency
system.cpu.icache.overall_avg_mshr_miss_latency::total 67627.090301                       # average overall mshr miss latency
system.cpu.icache.replacements                     38                       # number of replacements
system.cpu.icache.ReadReq_hits::.cpu.inst        45149                       # number of ReadReq hits
system.cpu.icache.ReadReq_hits::total           45149                       # number of ReadReq hits
system.cpu.icache.ReadReq_misses::.cpu.inst          299                       # number of ReadReq misses
system.cpu.icache.ReadReq_misses::total           299                       # number of ReadReq misses
system.cpu.icache.ReadReq_miss_latency::.cpu.inst     20519500                       # number of ReadReq miss cycles
system.cpu.icache.ReadReq_miss_latency::total     20519500                       # number of ReadReq miss cycles
system.cpu.icache.ReadReq_accesses::.cpu.inst        45448                       # number of ReadReq accesses(hits+misses)
system.cpu.icache.ReadReq_accesses::total        45448                       # number of ReadReq accesses(hits+misses)
system.cpu.icache.ReadReq_miss_rate::.cpu.inst     0.006579                       # miss rate for ReadReq accesses
system.cpu.icache.ReadReq_miss_rate::total     0.006579                       # miss rate for ReadReq accesses
system.cpu.icache.ReadReq_avg_miss_latency::.cpu.inst 68627.090301                       # average ReadReq miss latency
system.cpu.icache.ReadReq_avg_miss_latency::total 68627.090301                       # average ReadReq miss latency
system.cpu.icache.ReadReq_mshr_misses::.cpu.inst          299                       # number of ReadReq MSHR misses
system.cpu.icache.ReadReq_mshr_misses::total          299                       # number of ReadReq MSHR misses
system.cpu.icache.ReadReq_mshr_miss_latency::.cpu.inst     20220500                       # number of ReadReq MSHR miss cycles
system.cpu.icache.ReadReq_mshr_miss_latency::total     20220500                       # number of ReadReq MSHR miss cycles
system.cpu.icache.ReadReq_mshr_miss_rate::.cpu.inst     0.006579                       # mshr miss rate for ReadReq accesses
system.cpu.icache.ReadReq_mshr_miss_rate::total     0.006579                       # mshr miss rate for ReadReq accesses
system.cpu.icache.ReadReq_avg_mshr_miss_latency::.cpu.inst 67627.090301                       # average ReadReq mshr miss latency
system.cpu.icache.ReadReq_avg_mshr_miss_latency::total 67627.090301                       # average ReadReq mshr miss latency
system.cpu.icache.power_state.pwrStateResidencyTicks::UNDEFINED     89304000                       # Cumulative time (in ticks) in various power states
system.cpu.icache.tags.tagsinuse           177.480607                       # Cycle average of tags in use
system.cpu.icache.tags.total_refs               45448                       # Total number of references to valid blocks.
system.cpu.icache.tags.sampled_refs               299                       # Sample count of references to valid blocks.
system.cpu.icache.tags.avg_refs                   152                       # Average number of references to valid blocks.
system.cpu.icache.tags.warmup_cycle             88000                       # Cycle when the warmup percentage was hit.
system.cpu.icache.tags.occ_blocks::.cpu.inst   177.480607                       # Average occupied blocks per requestor
system.cpu.icache.tags.occ_percent::.cpu.inst     0.346642                       # Average percentage of cache occupancy
system.cpu.icache.tags.occ_percent::total     0.346642                       # Average percentage of cache occupancy
system.cpu.icache.tags.occ_task_id_blocks::1024          261                       # Occupied blocks per task id
system.cpu.icache.tags.age_task_id_blocks_1024::0           35                       # Occupied blocks per task id
system.cpu.icache.tags.age_task_id_blocks_1024::1          226                       # Occupied blocks per task id
system.cpu.icache.tags.occ_task_id_percent::1024     0.509766                       # Percentage of cache occupancy per task id
system.cpu.icache.tags.tag_accesses             91195                       # Number of tag accesses
system.cpu.icache.tags.data_accesses            91195                       # Number of data accesses
system.cpu.icache.tags.power_state.pwrStateResidencyTicks::UNDEFINED     89304000                       # Cumulative time (in ticks) in various power states
system.cpu.thread22784.numInsts                     0                       # Number of Instructions committed
system.cpu.thread22784.numOps                       0                       # Number of Ops committed
system.cpu.thread22784.numMemRefs                   0                       # Number of Memory References
system.cpu.dtb.instHits                             0                       # ITB inst hits
system.cpu.dtb.instMisses                           0                       # ITB inst misses
system.cpu.dtb.readHits                             0                       # DTB read hits
system.cpu.dtb.readMisses                           0                       # DTB read misses
system.cpu.dtb.writeHits                            0                       # DTB write hits
system.cpu.dtb.writeMisses                          0                       # DTB write misses
system.cpu.dtb.inserts                              0                       # Number of times an entry is inserted into the TLB
system.cpu.dtb.flushTlb                             0                       # Number of times complete TLB was flushed
system.cpu.dtb.flushTlbMva                          0                       # Number of times TLB was flushed by MVA
system.cpu.dtb.flushTlbMvaAsid                      0                       # Number of times TLB was flushed by MVA & ASID
system.cpu.dtb.flushTlbAsid                         0                       # Number of times TLB was flushed by ASID
system.cpu.dtb.flushedEntries                       0                       # Number of entries that have been flushed from TLB
system.cpu.dtb.alignFaults                          0                       # Number of TLB faults due to alignment restrictions
system.cpu.dtb.prefetchFaults                       0                       # Number of TLB faults due to prefetch
system.cpu.dtb.domainFaults                         0                       # Number of TLB faults due to domain restrictions
system.cpu.dtb.permsFaults                          0                       # Number of TLB faults due to permissions restrictions
system.cpu.dtb.readAccesses                         0                       # DTB read accesses
system.cpu.dtb.writeAccesses                        0                       # DTB write accesses
system.cpu.dtb.instAccesses                         0                       # ITB inst accesses
system.cpu.dtb.hits                                 0                       # Total TLB (inst and data) hits
system.cpu.dtb.misses                               0                       # Total TLB (inst and data) misses
system.cpu.dtb.accesses                             0                       # Total TLB (inst and data) accesses
system.cpu.dtb.walker.walks                         0                       # Table walker walks requested
system.cpu.dtb.walker.requestOrigin_Requested::Data            0                       # Table walker requests started/completed, data/inst
system.cpu.dtb.walker.requestOrigin_Requested::Inst            0                       # Table walker requests started/completed, data/inst
system.cpu.dtb.walker.requestOrigin_Requested::total            0                       # Table walker requests started/completed, data/inst
system.cpu.dtb.walker.requestOrigin_Completed::Data            0                       # Table walker requests started/completed, data/inst
system.cpu.dtb.walker.requestOrigin_Completed::Inst            0                       # Table walker requests started/completed, data/inst
system.cpu.dtb.walker.requestOrigin_Completed::total            0                       # Table walker requests started/completed, data/inst
system.cpu.dtb.walker.requestOrigin::total            0                       # Table walker requests started/completed, data/inst
system.cpu.dtb.walker.power_state.pwrStateResidencyTicks::UNDEFINED     89304000                       # Cumulative time (in ticks) in various power states
system.cpu.dtb.stage2_mmu.stage2_tlb.instHits            0                       # ITB inst hits
system.cpu.dtb.stage2_mmu.stage2_tlb.instMisses            0                       # ITB inst misses
system.cpu.dtb.stage2_mmu.stage2_tlb.readHits            0                       # DTB read hits
system.cpu.dtb.stage2_mmu.stage2_tlb.readMisses            0                       # DTB read misses
system.cpu.dtb.stage2_mmu.stage2_tlb.writeHits            0                       # DTB write hits
system.cpu.dtb.stage2_mmu.stage2_tlb.writeMisses            0                       # DTB write misses
system.cpu.dtb.stage2_mmu.stage2_tlb.inserts            0                       # Number of times an entry is inserted into the TLB
system.cpu.dtb.stage2_mmu.stage2_tlb.flushTlb            0                       # Number of times complete TLB was flushed
system.cpu.dtb.stage2_mmu.stage2_tlb.flushTlbMva            0                       # Number of times TLB was flushed by MVA
system.cpu.dtb.stage2_mmu.stage2_tlb.flushTlbMvaAsid            0                       # Number of times TLB was flushed by MVA & ASID
system.cpu.dtb.stage2_mmu.stage2_tlb.flushTlbAsid            0                       # Number of times TLB was flushed by ASID
system.cpu.dtb.stage2_mmu.stage2_tlb.flushedEntries            0                       # Number of entries that have been flushed from TLB
system.cpu.dtb.stage2_mmu.stage2_tlb.alignFaults            0                       # Number of TLB faults due to alignment restrictions
system.cpu.dtb.stage2_mmu.stage2_tlb.prefetchFaults            0                       # Number of TLB faults due to prefetch
system.cpu.dtb.stage2_mmu.stage2_tlb.domainFaults            0                       # Number of TLB faults due to domain restrictions
system.cpu.dtb.stage2_mmu.stage2_tlb.permsFaults            0                       # Number of TLB faults due to permissions restrictions
system.cpu.dtb.stage2_mmu.stage2_tlb.readAccesses            0                       # DTB read accesses
system.cpu.dtb.stage2_mmu.stage2_tlb.writeAccesses            0                       # DTB write accesses
system.cpu.dtb.stage2_mmu.stage2_tlb.instAccesses            0                       # ITB inst accesses
system.cpu.dtb.stage2_mmu.stage2_tlb.hits            0                       # Total TLB (inst and data) hits
system.cpu.dtb.stage2_mmu.stage2_tlb.misses            0                       # Total TLB (inst and data) misses
system.cpu.dtb.stage2_mmu.stage2_tlb.accesses            0                       # Total TLB (inst and data) accesses
system.cpu.dtb.stage2_mmu.stage2_tlb.walker.walks            0                       # Table walker walks requested
system.cpu.dtb.stage2_mmu.stage2_tlb.walker.requestOrigin_Requested::Data            0                       # Table walker requests started/completed, data/inst
system.cpu.dtb.stage2_mmu.stage2_tlb.walker.requestOrigin_Requested::Inst            0                       # Table walker requests started/completed, data/inst
system.cpu.dtb.stage2_mmu.stage2_tlb.walker.requestOrigin_Requested::total            0                       # Table walker requests started/completed, data/inst
system.cpu.dtb.stage2_mmu.stage2_tlb.walker.requestOrigin_Completed::Data            0                       # Table walker requests started/completed, data/inst
system.cpu.dtb.stage2_mmu.stage2_tlb.walker.requestOrigin_Completed::Inst            0                       # Table walker requests started/completed, data/inst
system.cpu.dtb.stage2_mmu.stage2_tlb.walker.requestOrigin_Completed::total            0                       # Table walker requests started/completed, data/inst
system.cpu.dtb.stage2_mmu.stage2_tlb.walker.requestOrigin::total            0                       # Table walker requests started/completed, data/inst
system.cpu.dtb.stage2_mmu.stage2_tlb.walker.power_state.pwrStateResidencyTicks::UNDEFINED     89304000                       # Cumulative time (in ticks) in various power states
system.cpu.itb.instHits                             0                       # ITB inst hits
system.cpu.itb.instMisses                           0                       # ITB inst misses
system.cpu.itb.readHits                             0                       # DTB read hits
system.cpu.itb.readMisses                           0                       # DTB read misses
system.cpu.itb.writeHits                            0                       # DTB write hits
system.cpu.itb.writeMisses                          0                       # DTB write misses
system.cpu.itb.inserts                              0                       # Number of times an entry is inserted into the TLB
system.cpu.itb.flushTlb                             0                       # Number of times complete TLB was flushed
system.cpu.itb.flushTlbMva                          0                       # Number of times TLB was flushed by MVA
system.cpu.itb.flushTlbMvaAsid                      0                       # Number of times TLB was flushed by MVA & ASID
system.cpu.itb.flushTlbAsid                         0                       # Number of times TLB was flushed by ASID
system.cpu.itb.flushedEntries                       0                       # Number of entries that have been flushed from TLB
system.cpu.itb.alignFaults                          0                       # Number of TLB faults due to alignment restrictions
system.cpu.itb.prefetchFaults                       0                       # Number of TLB faults due to prefetch
system.cpu.itb.domainFaults                         0                       # Number of TLB faults due to domain restrictions
system.cpu.itb.permsFaults                          0                       # Number of TLB faults due to permissions restrictions
system.cpu.itb.readAccesses                         0                       # DTB read accesses
system.cpu.itb.writeAccesses                        0                       # DTB write accesses
system.cpu.itb.instAccesses                         0                       # ITB inst accesses
system.cpu.itb.hits                                 0                       # Total TLB (inst and data) hits
system.cpu.itb.misses                               0                       # Total TLB (inst and data) misses
system.cpu.itb.accesses                             0                       # Total TLB (inst and data) accesses
system.cpu.itb.walker.walks                         0                       # Table walker walks requested
system.cpu.itb.walker.requestOrigin_Requested::Data            0                       # Table walker requests started/completed, data/inst
system.cpu.itb.walker.requestOrigin_Requested::Inst            0                       # Table walker requests started/completed, data/inst
system.cpu.itb.walker.requestOrigin_Requested::total            0                       # Table walker requests started/completed, data/inst
system.cpu.itb.walker.requestOrigin_Completed::Data            0                       # Table walker requests started/completed, data/inst
system.cpu.itb.walker.requestOrigin_Completed::Inst            0                       # Table walker requests started/completed, data/inst
system.cpu.itb.walker.requestOrigin_Completed::total            0                       # Table walker requests started/completed, data/inst
system.cpu.itb.walker.requestOrigin::total            0                       # Table walker requests started/completed, data/inst
system.cpu.itb.walker.power_state.pwrStateResidencyTicks::UNDEFINED     89304000                       # Cumulative time (in ticks) in various power states
system.cpu.itb.stage2_mmu.stage2_tlb.instHits            0                       # ITB inst hits
system.cpu.itb.stage2_mmu.stage2_tlb.instMisses            0                       # ITB inst misses
system.cpu.itb.stage2_mmu.stage2_tlb.readHits            0                       # DTB read hits
system.cpu.itb.stage2_mmu.stage2_tlb.readMisses            0                       # DTB read misses
system.cpu.itb.stage2_mmu.stage2_tlb.writeHits            0                       # DTB write hits
system.cpu.itb.stage2_mmu.stage2_tlb.writeMisses            0                       # DTB write misses
system.cpu.itb.stage2_mmu.stage2_tlb.inserts            0                       # Number of times an entry is inserted into the TLB
system.cpu.itb.stage2_mmu.stage2_tlb.flushTlb            0                       # Number of times complete TLB was flushed
system.cpu.itb.stage2_mmu.stage2_tlb.flushTlbMva            0                       # Number of times TLB was flushed by MVA
system.cpu.itb.stage2_mmu.stage2_tlb.flushTlbMvaAsid            0                       # Number of times TLB was flushed by MVA & ASID
system.cpu.itb.stage2_mmu.stage2_tlb.flushTlbAsid            0                       # Number of times TLB was flushed by ASID
system.cpu.itb.stage2_mmu.stage2_tlb.flushedEntries            0                       # Number of entries that have been flushed from TLB
system.cpu.itb.stage2_mmu.stage2_tlb.alignFaults            0                       # Number of TLB faults due to alignment restrictions
system.cpu.itb.stage2_mmu.stage2_tlb.prefetchFaults            0                       # Number of TLB faults due to prefetch
system.cpu.itb.stage2_mmu.stage2_tlb.domainFaults            0                       # Number of TLB faults due to domain restrictions
system.cpu.itb.stage2_mmu.stage2_tlb.permsFaults            0                       # Number of TLB faults due to permissions restrictions
system.cpu.itb.stage2_mmu.stage2_tlb.readAccesses            0                       # DTB read accesses
system.cpu.itb.stage2_mmu.stage2_tlb.writeAccesses            0                       # DTB write accesses
system.cpu.itb.stage2_mmu.stage2_tlb.instAccesses            0                       # ITB inst accesses
system.cpu.itb.stage2_mmu.stage2_tlb.hits            0                       # Total TLB (inst and data) hits
system.cpu.itb.stage2_mmu.stage2_tlb.misses            0                       # Total TLB (inst and data) misses
system.cpu.itb.stage2_mmu.stage2_tlb.accesses            0                       # Total TLB (inst and data) accesses
system.cpu.itb.stage2_mmu.stage2_tlb.walker.walks            0                       # Table walker walks requested
system.cpu.itb.stage2_mmu.stage2_tlb.walker.requestOrigin_Requested::Data            0                       # Table walker requests started/completed, data/inst
system.cpu.itb.stage2_mmu.stage2_tlb.walker.requestOrigin_Requested::Inst            0                       # Table walker requests started/completed, data/inst
system.cpu.itb.stage2_mmu.stage2_tlb.walker.requestOrigin_Requested::total            0                       # Table walker requests started/completed, data/inst
system.cpu.itb.stage2_mmu.stage2_tlb.walker.requestOrigin_Completed::Data            0                       # Table walker requests started/completed, data/inst
system.cpu.itb.stage2_mmu.stage2_tlb.walker.requestOrigin_Completed::Inst            0                       # Table walker requests started/completed, data/inst
system.cpu.itb.stage2_mmu.stage2_tlb.walker.requestOrigin_Completed::total            0                       # Table walker requests started/completed, data/inst
system.cpu.itb.stage2_mmu.stage2_tlb.walker.requestOrigin::total            0                       # Table walker requests started/completed, data/inst
system.cpu.itb.stage2_mmu.stage2_tlb.walker.power_state.pwrStateResidencyTicks::UNDEFINED     89304000                       # Cumulative time (in ticks) in various power states
system.cpu.dcache.demand_hits::.cpu.data        10608                       # number of demand (read+write) hits
system.cpu.dcache.demand_hits::total            10608                       # number of demand (read+write) hits
system.cpu.dcache.overall_hits::.cpu.data        10629                       # number of overall hits
system.cpu.dcache.overall_hits::total           10629                       # number of overall hits
system.cpu.dcache.demand_misses::.cpu.data          159                       # number of demand (read+write) misses
system.cpu.dcache.demand_misses::total            159                       # number of demand (read+write) misses
system.cpu.dcache.overall_misses::.cpu.data          172                       # number of overall misses
system.cpu.dcache.overall_misses::total           172                       # number of overall misses
system.cpu.dcache.demand_miss_latency::.cpu.data     11321000                       # number of demand (read+write) miss cycles
system.cpu.dcache.demand_miss_latency::total     11321000                       # number of demand (read+write) miss cycles
system.cpu.dcache.overall_miss_latency::.cpu.data     11321000                       # number of overall miss cycles
system.cpu.dcache.overall_miss_latency::total     11321000                       # number of overall miss cycles
system.cpu.dcache.demand_accesses::.cpu.data        10767                       # number of demand (read+write) accesses
system.cpu.dcache.demand_accesses::total        10767                       # number of demand (read+write) accesses
system.cpu.dcache.overall_accesses::.cpu.data        10801                       # number of overall (read+write) accesses
system.cpu.dcache.overall_accesses::total        10801                       # number of overall (read+write) accesses
system.cpu.dcache.demand_miss_rate::.cpu.data     0.014767                       # miss rate for demand accesses
system.cpu.dcache.demand_miss_rate::total     0.014767                       # miss rate for demand accesses
system.cpu.dcache.overall_miss_rate::.cpu.data     0.015924                       # miss rate for overall accesses
system.cpu.dcache.overall_miss_rate::total     0.015924                       # miss rate for overall accesses
system.cpu.dcache.demand_avg_miss_latency::.cpu.data 71201.257862                       # average overall miss latency
system.cpu.dcache.demand_avg_miss_latency::total 71201.257862                       # average overall miss latency
system.cpu.dcache.overall_avg_miss_latency::.cpu.data 65819.767442                       # average overall miss latency
system.cpu.dcache.overall_avg_miss_latency::total 65819.767442                       # average overall miss latency
system.cpu.dcache.blocked_cycles::no_mshrs            0                       # number of cycles access was blocked
system.cpu.dcache.blocked_cycles::no_targets            0                       # number of cycles access was blocked
system.cpu.dcache.blocked::no_mshrs                 0                       # number of cycles access was blocked
system.cpu.dcache.blocked::no_targets               0                       # number of cycles access was blocked
system.cpu.dcache.avg_blocked_cycles::no_mshrs          nan                       # average number of cycles each access was blocked
system.cpu.dcache.avg_blocked_cycles::no_targets          nan                       # average number of cycles each access was blocked
system.cpu.dcache.demand_mshr_hits::.cpu.data            2                       # number of demand (read+write) MSHR hits
system.cpu.dcache.demand_mshr_hits::total            2                       # number of demand (read+write) MSHR hits
system.cpu.dcache.overall_mshr_hits::.cpu.data            2                       # number of overall MSHR hits
system.cpu.dcache.overall_mshr_hits::total            2                       # number of overall MSHR hits
system.cpu.dcache.demand_mshr_misses::.cpu.data          157                       # number of demand (read+write) MSHR misses
system.cpu.dcache.demand_mshr_misses::total          157                       # number of demand (read+write) MSHR misses
system.cpu.dcache.overall_mshr_misses::.cpu.data          166                       # number of overall MSHR misses
system.cpu.dcache.overall_mshr_misses::total          166                       # number of overall MSHR misses
system.cpu.dcache.demand_mshr_miss_latency::.cpu.data     11049000                       # number of demand (read+write) MSHR miss cycles
system.cpu.dcache.demand_mshr_miss_latency::total     11049000                       # number of demand (read+write) MSHR miss cycles
system.cpu.dcache.overall_mshr_miss_latency::.cpu.data     11648000                       # number of overall MSHR miss cycles
system.cpu.dcache.overall_mshr_miss_latency::total     11648000                       # number of overall MSHR miss cycles
system.cpu.dcache.demand_mshr_miss_rate::.cpu.data     0.014582                       # mshr miss rate for demand accesses
system.cpu.dcache.demand_mshr_miss_rate::total     0.014582                       # mshr miss rate for demand accesses
system.cpu.dcache.overall_mshr_miss_rate::.cpu.data     0.015369                       # mshr miss rate for overall accesses
system.cpu.dcache.overall_mshr_miss_rate::total     0.015369                       # mshr miss rate for overall accesses
system.cpu.dcache.demand_avg_mshr_miss_latency::.cpu.data 70375.796178                       # average overall mshr miss latency
system.cpu.dcache.demand_avg_mshr_miss_latency::total 70375.796178                       # average overall mshr miss latency
system.cpu.dcache.overall_avg_mshr_miss_latency::.cpu.data 70168.674699                       # average overall mshr miss latency
system.cpu.dcache.overall_avg_mshr_miss_latency::total 70168.674699                       # average overall mshr miss latency
system.cpu.dcache.replacements                      0                       # number of replacements
system.cpu.dcache.ReadReq_hits::.cpu.data         6042                       # number of ReadReq hits
system.cpu.dcache.ReadReq_hits::total            6042                       # number of ReadReq hits
system.cpu.dcache.ReadReq_misses::.cpu.data           92                       # number of ReadReq misses
system.cpu.dcache.ReadReq_misses::total            92                       # number of ReadReq misses
system.cpu.dcache.ReadReq_miss_latency::.cpu.data      6862000                       # number of ReadReq miss cycles
system.cpu.dcache.ReadReq_miss_latency::total      6862000                       # number of ReadReq miss cycles
system.cpu.dcache.ReadReq_accesses::.cpu.data         6134                       # number of ReadReq accesses(hits+misses)
system.cpu.dcache.ReadReq_accesses::total         6134                       # number of ReadReq accesses(hits+misses)
system.cpu.dcache.ReadReq_miss_rate::.cpu.data     0.014998                       # miss rate for ReadReq accesses
system.cpu.dcache.ReadReq_miss_rate::total     0.014998                       # miss rate for ReadReq accesses
system.cpu.dcache.ReadReq_avg_miss_latency::.cpu.data 74586.956522                       # average ReadReq miss latency
system.cpu.dcache.ReadReq_avg_miss_latency::total 74586.956522                       # average ReadReq miss latency
system.cpu.dcache.ReadReq_mshr_hits::.cpu.data            2                       # number of ReadReq MSHR hits
system.cpu.dcache.ReadReq_mshr_hits::total            2                       # number of ReadReq MSHR hits
system.cpu.dcache.ReadReq_mshr_misses::.cpu.data           90                       # number of ReadReq MSHR misses
system.cpu.dcache.ReadReq_mshr_misses::total           90                       # number of ReadReq MSHR misses
system.cpu.dcache.ReadReq_mshr_miss_latency::.cpu.data      6657000                       # number of ReadReq MSHR miss cycles
system.cpu.dcache.ReadReq_mshr_miss_latency::total      6657000                       # number of ReadReq MSHR miss cycles
system.cpu.dcache.ReadReq_mshr_miss_rate::.cpu.data     0.014672                       # mshr miss rate for ReadReq accesses
system.cpu.dcache.ReadReq_mshr_miss_rate::total     0.014672                       # mshr miss rate for ReadReq accesses
system.cpu.dcache.ReadReq_avg_mshr_miss_latency::.cpu.data 73966.666667                       # average ReadReq mshr miss latency
system.cpu.dcache.ReadReq_avg_mshr_miss_latency::total 73966.666667                       # average ReadReq mshr miss latency
system.cpu.dcache.WriteReq_hits::.cpu.data         4566                       # number of WriteReq hits
system.cpu.dcache.WriteReq_hits::total           4566                       # number of WriteReq hits
system.cpu.dcache.WriteReq_misses::.cpu.data           67                       # number of WriteReq misses
system.cpu.dcache.WriteReq_misses::total           67                       # number of WriteReq misses
system.cpu.dcache.WriteReq_miss_latency::.cpu.data      4459000                       # number of WriteReq miss cycles
system.cpu.dcache.WriteReq_miss_latency::total      4459000                       # number of WriteReq miss cycles
system.cpu.dcache.WriteReq_accesses::.cpu.data         4633                       # number of WriteReq accesses(hits+misses)
system.cpu.dcache.WriteReq_accesses::total         4633                       # number of WriteReq accesses(hits+misses)
system.cpu.dcache.WriteReq_miss_rate::.cpu.data     0.014461                       # miss rate for WriteReq accesses
system.cpu.dcache.WriteReq_miss_rate::total     0.014461                       # miss rate for WriteReq accesses
system.cpu.dcache.WriteReq_avg_miss_latency::.cpu.data 66552.238806                       # average WriteReq miss latency
system.cpu.dcache.WriteReq_avg_miss_latency::total 66552.238806                       # average WriteReq miss latency
system.cpu.dcache.WriteReq_mshr_misses::.cpu.data           67                       # number of WriteReq MSHR misses
system.cpu.dcache.WriteReq_mshr_misses::total           67                       # number of WriteReq MSHR misses
system.cpu.dcache.WriteReq_mshr_miss_latency::.cpu.data      4392000                       # number of WriteReq MSHR miss cycles
system.cpu.dcache.WriteReq_mshr_miss_latency::total      4392000                       # number of WriteReq MSHR miss cycles
system.cpu.dcache.WriteReq_mshr_miss_rate::.cpu.data     0.014461                       # mshr miss rate for WriteReq accesses
system.cpu.dcache.WriteReq_mshr_miss_rate::total     0.014461                       # mshr miss rate for WriteReq accesses
system.cpu.dcache.WriteReq_avg_mshr_miss_latency::.cpu.data 65552.238806                       # average WriteReq mshr miss latency
system.cpu.dcache.WriteReq_avg_mshr_miss_latency::total 65552.238806                       # average WriteReq mshr miss latency
system.cpu.dcache.SoftPFReq_hits::.cpu.data           21                       # number of SoftPFReq hits
system.cpu.dcache.SoftPFReq_hits::total            21                       # number of SoftPFReq hits
system.cpu.dcache.SoftPFReq_misses::.cpu.data           13                       # number of SoftPFReq misses
system.cpu.dcache.SoftPFReq_misses::total           13                       # number of SoftPFReq misses
system.cpu.dcache.SoftPFReq_accesses::.cpu.data           34                       # number of SoftPFReq accesses(hits+misses)
system.cpu.dcache.SoftPFReq_accesses::total           34                       # number of SoftPFReq accesses(hits+misses)
system.cpu.dcache.SoftPFReq_miss_rate::.cpu.data     0.382353                       # miss rate for SoftPFReq accesses
system.cpu.dcache.SoftPFReq_miss_rate::total     0.382353                       # miss rate for SoftPFReq accesses
system.cpu.dcache.SoftPFReq_mshr_misses::.cpu.data            9                       # number of SoftPFReq MSHR misses
system.cpu.dcache.SoftPFReq_mshr_misses::total            9                       # number of SoftPFReq MSHR misses
system.cpu.dcache.SoftPFReq_mshr_miss_latency::.cpu.data       599000                       # number of SoftPFReq MSHR miss cycles
system.cpu.dcache.SoftPFReq_mshr_miss_latency::total       599000                       # number of SoftPFReq MSHR miss cycles
system.cpu.dcache.SoftPFReq_mshr_miss_rate::.cpu.data     0.264706                       # mshr miss rate for SoftPFReq accesses
system.cpu.dcache.SoftPFReq_mshr_miss_rate::total     0.264706                       # mshr miss rate for SoftPFReq accesses
system.cpu.dcache.SoftPFReq_avg_mshr_miss_latency::.cpu.data 66555.555556                       # average SoftPFReq mshr miss latency
system.cpu.dcache.SoftPFReq_avg_mshr_miss_latency::total 66555.555556                       # average SoftPFReq mshr miss latency
system.cpu.dcache.LoadLockedReq_hits::.cpu.data           38                       # number of LoadLockedReq hits
system.cpu.dcache.LoadLockedReq_hits::total           38                       # number of LoadLockedReq hits
system.cpu.dcache.LoadLockedReq_accesses::.cpu.data           38                       # number of LoadLockedReq accesses(hits+misses)
system.cpu.dcache.LoadLockedReq_accesses::total           38                       # number of LoadLockedReq accesses(hits+misses)
system.cpu.dcache.StoreCondReq_hits::.cpu.data           38                       # number of StoreCondReq hits
system.cpu.dcache.StoreCondReq_hits::total           38                       # number of StoreCondReq hits
system.cpu.dcache.StoreCondReq_accesses::.cpu.data           38                       # number of StoreCondReq accesses(hits+misses)
system.cpu.dcache.StoreCondReq_accesses::total           38                       # number of StoreCondReq accesses(hits+misses)
system.cpu.dcache.power_state.pwrStateResidencyTicks::UNDEFINED     89304000                       # Cumulative time (in ticks) in various power states
system.cpu.dcache.tags.tagsinuse           123.953687                       # Cycle average of tags in use
system.cpu.dcache.tags.total_refs               10871                       # Total number of references to valid blocks.
system.cpu.dcache.tags.sampled_refs               166                       # Sample count of references to valid blocks.
system.cpu.dcache.tags.avg_refs             65.487952                       # Average number of references to valid blocks.
system.cpu.dcache.tags.warmup_cycle            174000                       # Cycle when the warmup percentage was hit.
system.cpu.dcache.tags.occ_blocks::.cpu.data   123.953687                       # Average occupied blocks per requestor
system.cpu.dcache.tags.occ_percent::.cpu.data     0.121049                       # Average percentage of cache occupancy
system.cpu.dcache.tags.occ_percent::total     0.121049                       # Average percentage of cache occupancy
system.cpu.dcache.tags.occ_task_id_blocks::1024          166                       # Occupied blocks per task id
system.cpu.dcache.tags.age_task_id_blocks_1024::0           12                       # Occupied blocks per task id
system.cpu.dcache.tags.age_task_id_blocks_1024::1          154                       # Occupied blocks per task id
system.cpu.dcache.tags.occ_task_id_percent::1024     0.162109                       # Percentage of cache occupancy per task id
system.cpu.dcache.tags.tag_accesses             21920                       # Number of tag accesses
system.cpu.dcache.tags.data_accesses            21920                       # Number of data accesses
system.cpu.dcache.tags.power_state.pwrStateResidencyTicks::UNDEFINED     89304000                       # Cumulative time (in ticks) in various power states
system.cpu.power_state.pwrStateResidencyTicks::ON     89304000                       # Cumulative time (in ticks) in various power states

---------- End Simulation Statistics   ----------
