
---------- Begin Simulation Statistics ----------
final_tick                                80489292500                       # Number of ticks from beginning of simulation (restored from checkpoints and never reset)
host_inst_rate                                 346087                       # Simulator instruction rate (inst/s)
host_mem_usage                                 700352                       # Number of bytes of host memory used
host_op_rate                                   346766                       # Simulator op (including micro ops) rate (op/s)
host_seconds                                   288.95                       # Real time elapsed on the host
host_tick_rate                              278562582                       # Simulator tick rate (ticks/s)
sim_freq                                 1000000000000                       # Frequency of simulated ticks
sim_insts                                   100000001                       # Number of instructions simulated
sim_ops                                     100196356                       # Number of ops (including micro ops) simulated
sim_seconds                                  0.080489                       # Number of seconds simulated
sim_ticks                                 80489292500                       # Number of ticks simulated
system.cpu.committedInsts                   100000001                       # Number of instructions committed
system.cpu.committedOps                     100196356                       # Number of ops (including micro ops) committed
system.cpu.cpi                               1.609786                       # CPI: cycles per instruction
system.cpu.discardedOps                        189352                       # Number of ops (including micro ops) which were discarded before commit
system.cpu.idleCycles                        28530138                       # Total number of cycles that the object has spent stopped
system.cpu.ipc                               0.621201                       # IPC: instructions per cycle
system.cpu.numCycles                        160978585                       # number of cpu cycles simulated
system.cpu.numFetchSuspends                         0                       # Number of times Execute suspended instruction fetching
system.cpu.numWorkItemsCompleted                    0                       # number of work items this cpu completed
system.cpu.numWorkItemsStarted                      0                       # number of work items this cpu started
system.cpu.op_class_0::No_OpClass                   0      0.00%      0.00% # Class of committed instruction
system.cpu.op_class_0::IntAlu                46526863     46.44%     46.44% # Class of committed instruction
system.cpu.op_class_0::IntMult                  20723      0.02%     46.46% # Class of committed instruction
system.cpu.op_class_0::IntDiv                       0      0.00%     46.46% # Class of committed instruction
system.cpu.op_class_0::FloatAdd                     0      0.00%     46.46% # Class of committed instruction
system.cpu.op_class_0::FloatCmp                     0      0.00%     46.46% # Class of committed instruction
system.cpu.op_class_0::FloatCvt                     0      0.00%     46.46% # Class of committed instruction
system.cpu.op_class_0::FloatMult                    0      0.00%     46.46% # Class of committed instruction
system.cpu.op_class_0::FloatMultAcc                 0      0.00%     46.46% # Class of committed instruction
system.cpu.op_class_0::FloatDiv                     0      0.00%     46.46% # Class of committed instruction
system.cpu.op_class_0::FloatMisc                    0      0.00%     46.46% # Class of committed instruction
system.cpu.op_class_0::FloatSqrt                    0      0.00%     46.46% # Class of committed instruction
system.cpu.op_class_0::SimdAdd                      0      0.00%     46.46% # Class of committed instruction
system.cpu.op_class_0::SimdAddAcc                   0      0.00%     46.46% # Class of committed instruction
system.cpu.op_class_0::SimdAlu                      0      0.00%     46.46% # Class of committed instruction
system.cpu.op_class_0::SimdCmp                      0      0.00%     46.46% # Class of committed instruction
system.cpu.op_class_0::SimdCvt                      0      0.00%     46.46% # Class of committed instruction
system.cpu.op_class_0::SimdMisc                     0      0.00%     46.46% # Class of committed instruction
system.cpu.op_class_0::SimdMult                     0      0.00%     46.46% # Class of committed instruction
system.cpu.op_class_0::SimdMultAcc                  0      0.00%     46.46% # Class of committed instruction
system.cpu.op_class_0::SimdShift                    0      0.00%     46.46% # Class of committed instruction
system.cpu.op_class_0::SimdShiftAcc                 0      0.00%     46.46% # Class of committed instruction
system.cpu.op_class_0::SimdDiv                      0      0.00%     46.46% # Class of committed instruction
system.cpu.op_class_0::SimdSqrt                     0      0.00%     46.46% # Class of committed instruction
system.cpu.op_class_0::SimdFloatAdd                 0      0.00%     46.46% # Class of committed instruction
system.cpu.op_class_0::SimdFloatAlu                 0      0.00%     46.46% # Class of committed instruction
system.cpu.op_class_0::SimdFloatCmp                 0      0.00%     46.46% # Class of committed instruction
system.cpu.op_class_0::SimdFloatCvt                 0      0.00%     46.46% # Class of committed instruction
system.cpu.op_class_0::SimdFloatDiv                 0      0.00%     46.46% # Class of committed instruction
system.cpu.op_class_0::SimdFloatMisc               18      0.00%     46.46% # Class of committed instruction
system.cpu.op_class_0::SimdFloatMult                0      0.00%     46.46% # Class of committed instruction
system.cpu.op_class_0::SimdFloatMultAcc             0      0.00%     46.46% # Class of committed instruction
system.cpu.op_class_0::SimdFloatSqrt                0      0.00%     46.46% # Class of committed instruction
system.cpu.op_class_0::SimdReduceAdd                0      0.00%     46.46% # Class of committed instruction
system.cpu.op_class_0::SimdReduceAlu                0      0.00%     46.46% # Class of committed instruction
system.cpu.op_class_0::SimdReduceCmp                0      0.00%     46.46% # Class of committed instruction
system.cpu.op_class_0::SimdFloatReduceAdd            0      0.00%     46.46% # Class of committed instruction
system.cpu.op_class_0::SimdFloatReduceCmp            0      0.00%     46.46% # Class of committed instruction
system.cpu.op_class_0::SimdAes                      0      0.00%     46.46% # Class of committed instruction
system.cpu.op_class_0::SimdAesMix                   0      0.00%     46.46% # Class of committed instruction
system.cpu.op_class_0::SimdSha1Hash                 0      0.00%     46.46% # Class of committed instruction
system.cpu.op_class_0::SimdSha1Hash2                0      0.00%     46.46% # Class of committed instruction
system.cpu.op_class_0::SimdSha256Hash               0      0.00%     46.46% # Class of committed instruction
system.cpu.op_class_0::SimdSha256Hash2              0      0.00%     46.46% # Class of committed instruction
system.cpu.op_class_0::SimdShaSigma2                0      0.00%     46.46% # Class of committed instruction
system.cpu.op_class_0::SimdShaSigma3                0      0.00%     46.46% # Class of committed instruction
system.cpu.op_class_0::SimdPredAlu                  0      0.00%     46.46% # Class of committed instruction
system.cpu.op_class_0::MemRead               42690537     42.61%     89.06% # Class of committed instruction
system.cpu.op_class_0::MemWrite              10958215     10.94%    100.00% # Class of committed instruction
system.cpu.op_class_0::FloatMemRead                 0      0.00%    100.00% # Class of committed instruction
system.cpu.op_class_0::FloatMemWrite                0      0.00%    100.00% # Class of committed instruction
system.cpu.op_class_0::IprAccess                    0      0.00%    100.00% # Class of committed instruction
system.cpu.op_class_0::InstPrefetch                 0      0.00%    100.00% # Class of committed instruction
system.cpu.op_class_0::total                100196356                       # Class of committed instruction
system.cpu.tickCycles                       132448447                       # Number of cycles that the object actually ticked
system.cpu.workload.numSyscalls                    85                       # Number of system calls
system.membus.snoop_filter.hit_multi_requests            0                       # Number of requests hitting in the snoop filter with multiple (>1) holders of the requested data.
system.membus.snoop_filter.hit_multi_snoops            0                       # Number of snoops hitting in the snoop filter with multiple (>1) holders of the requested data.
system.membus.snoop_filter.hit_single_requests       115557                       # Number of requests hitting in the snoop filter with a single holder of the requested data.
system.membus.snoop_filter.hit_single_snoops            0                       # Number of snoops hitting in the snoop filter with a single holder of the requested data.
system.membus.snoop_filter.tot_requests        296949                       # Total number of requests made to the snoop filter.
system.membus.snoop_filter.tot_snoops               0                       # Total number of snoops made to the snoop filter.
system.tol2bus.snoop_filter.hit_multi_requests           59                       # Number of requests hitting in the snoop filter with multiple (>1) holders of the requested data.
system.tol2bus.snoop_filter.hit_multi_snoops            0                       # Number of snoops hitting in the snoop filter with multiple (>1) holders of the requested data.
system.tol2bus.snoop_filter.hit_single_requests       474677                       # Number of requests hitting in the snoop filter with a single holder of the requested data.
system.tol2bus.snoop_filter.hit_single_snoops         1543                       # Number of snoops hitting in the snoop filter with a single holder of the requested data.
system.tol2bus.snoop_filter.tot_requests       951838                       # Total number of requests made to the snoop filter.
system.tol2bus.snoop_filter.tot_snoops           1543                       # Total number of snoops made to the snoop filter.
system.membus.trans_dist::ReadResp              53678                       # Transaction distribution
system.membus.trans_dist::WritebackDirty        63561                       # Transaction distribution
system.membus.trans_dist::CleanEvict            51991                       # Transaction distribution
system.membus.trans_dist::ReadExReq            127719                       # Transaction distribution
system.membus.trans_dist::ReadExResp           127719                       # Transaction distribution
system.membus.trans_dist::ReadSharedReq         53678                       # Transaction distribution
system.membus.pkt_count_system.l2.mem_side_port::system.mem_ctrls.port       478346                       # Packet count per connected requestor and responder (bytes)
system.membus.pkt_count::total                 478346                       # Packet count per connected requestor and responder (bytes)
system.membus.pkt_size_system.l2.mem_side_port::system.mem_ctrls.port     15677312                       # Cumulative packet size per connected requestor and responder (bytes)
system.membus.pkt_size::total                15677312                       # Cumulative packet size per connected requestor and responder (bytes)
system.membus.snoops                                0                       # Total snoops (count)
system.membus.snoopTraffic                          0                       # Total snoop traffic (bytes)
system.membus.snoop_fanout::samples            181397                       # Request fanout histogram
system.membus.snoop_fanout::mean                    0                       # Request fanout histogram
system.membus.snoop_fanout::stdev                   0                       # Request fanout histogram
system.membus.snoop_fanout::underflows              0      0.00%      0.00% # Request fanout histogram
system.membus.snoop_fanout::0                  181397    100.00%    100.00% # Request fanout histogram
system.membus.snoop_fanout::1                       0      0.00%    100.00% # Request fanout histogram
system.membus.snoop_fanout::overflows               0      0.00%    100.00% # Request fanout histogram
system.membus.snoop_fanout::min_value               0                       # Request fanout histogram
system.membus.snoop_fanout::max_value               0                       # Request fanout histogram
system.membus.snoop_fanout::total              181397                       # Request fanout histogram
system.membus.reqLayer0.occupancy           584945500                       # Layer occupancy (ticks)
system.membus.reqLayer0.utilization               0.7                       # Layer utilization (%)
system.membus.respLayer1.occupancy          975120500                       # Layer occupancy (ticks)
system.membus.respLayer1.utilization              1.2                       # Layer utilization (%)
system.membus.power_state.pwrStateResidencyTicks::UNDEFINED  80489292500                       # Cumulative time (in ticks) in various power states
system.tol2bus.trans_dist::ReadResp            249146                       # Transaction distribution
system.tol2bus.trans_dist::WritebackDirty       482603                       # Transaction distribution
system.tol2bus.trans_dist::WritebackClean          333                       # Transaction distribution
system.tol2bus.trans_dist::CleanEvict          107734                       # Transaction distribution
system.tol2bus.trans_dist::ReadExReq           228017                       # Transaction distribution
system.tol2bus.trans_dist::ReadExResp          228017                       # Transaction distribution
system.tol2bus.trans_dist::ReadCleanReq           773                       # Transaction distribution
system.tol2bus.trans_dist::ReadSharedReq       248373                       # Transaction distribution
system.tol2bus.pkt_count_system.cpu.icache.mem_side_port::system.l2.cpu_side_port         1879                       # Packet count per connected requestor and responder (bytes)
system.tol2bus.pkt_count_system.cpu.dcache.mem_side_port::system.l2.cpu_side_port      1427122                       # Packet count per connected requestor and responder (bytes)
system.tol2bus.pkt_count::total               1429001                       # Packet count per connected requestor and responder (bytes)
system.tol2bus.pkt_size_system.cpu.icache.mem_side_port::system.l2.cpu_side_port        70784                       # Cumulative packet size per connected requestor and responder (bytes)
system.tol2bus.pkt_size_system.cpu.dcache.mem_side_port::system.l2.cpu_side_port     57307648                       # Cumulative packet size per connected requestor and responder (bytes)
system.tol2bus.pkt_size::total               57378432                       # Cumulative packet size per connected requestor and responder (bytes)
system.tol2bus.snoops                          115995                       # Total snoops (count)
system.tol2bus.snoopTraffic                   4067904                       # Total snoop traffic (bytes)
system.tol2bus.snoop_fanout::samples           593158                       # Request fanout histogram
system.tol2bus.snoop_fanout::mean            0.002704                       # Request fanout histogram
system.tol2bus.snoop_fanout::stdev           0.051931                       # Request fanout histogram
system.tol2bus.snoop_fanout::underflows             0      0.00%      0.00% # Request fanout histogram
system.tol2bus.snoop_fanout::0                 591554     99.73%     99.73% # Request fanout histogram
system.tol2bus.snoop_fanout::1                   1604      0.27%    100.00% # Request fanout histogram
system.tol2bus.snoop_fanout::2                      0      0.00%    100.00% # Request fanout histogram
system.tol2bus.snoop_fanout::overflows              0      0.00%    100.00% # Request fanout histogram
system.tol2bus.snoop_fanout::min_value              0                       # Request fanout histogram
system.tol2bus.snoop_fanout::max_value              1                       # Request fanout histogram
system.tol2bus.snoop_fanout::total             593158                       # Request fanout histogram
system.tol2bus.reqLayer0.occupancy          895294000                       # Layer occupancy (ticks)
system.tol2bus.reqLayer0.utilization              1.1                       # Layer utilization (%)
system.tol2bus.respLayer1.occupancy         714587994                       # Layer occupancy (ticks)
system.tol2bus.respLayer1.utilization             0.9                       # Layer utilization (%)
system.tol2bus.respLayer0.occupancy           1159500                       # Layer occupancy (ticks)
system.tol2bus.respLayer0.utilization             0.0                       # Layer utilization (%)
system.tol2bus.power_state.pwrStateResidencyTicks::UNDEFINED  80489292500                       # Cumulative time (in ticks) in various power states
system.voltage_domain.voltage                       1                       # Voltage in Volts
system.clk_domain.clock                          1000                       # Clock period in ticks
system.l2.demand_hits::.cpu.inst                  102                       # number of demand (read+write) hits
system.l2.demand_hits::.cpu.data               295658                       # number of demand (read+write) hits
system.l2.demand_hits::total                   295760                       # number of demand (read+write) hits
system.l2.overall_hits::.cpu.inst                 102                       # number of overall hits
system.l2.overall_hits::.cpu.data              295658                       # number of overall hits
system.l2.overall_hits::total                  295760                       # number of overall hits
system.l2.demand_misses::.cpu.inst                671                       # number of demand (read+write) misses
system.l2.demand_misses::.cpu.data             180732                       # number of demand (read+write) misses
system.l2.demand_misses::total                 181403                       # number of demand (read+write) misses
system.l2.overall_misses::.cpu.inst               671                       # number of overall misses
system.l2.overall_misses::.cpu.data            180732                       # number of overall misses
system.l2.overall_misses::total                181403                       # number of overall misses
system.l2.demand_miss_latency::.cpu.inst     52340000                       # number of demand (read+write) miss cycles
system.l2.demand_miss_latency::.cpu.data  14889621500                       # number of demand (read+write) miss cycles
system.l2.demand_miss_latency::total      14941961500                       # number of demand (read+write) miss cycles
system.l2.overall_miss_latency::.cpu.inst     52340000                       # number of overall miss cycles
system.l2.overall_miss_latency::.cpu.data  14889621500                       # number of overall miss cycles
system.l2.overall_miss_latency::total     14941961500                       # number of overall miss cycles
system.l2.demand_accesses::.cpu.inst              773                       # number of demand (read+write) accesses
system.l2.demand_accesses::.cpu.data           476390                       # number of demand (read+write) accesses
system.l2.demand_accesses::total               477163                       # number of demand (read+write) accesses
system.l2.overall_accesses::.cpu.inst             773                       # number of overall (read+write) accesses
system.l2.overall_accesses::.cpu.data          476390                       # number of overall (read+write) accesses
system.l2.overall_accesses::total              477163                       # number of overall (read+write) accesses
system.l2.demand_miss_rate::.cpu.inst        0.868047                       # miss rate for demand accesses
system.l2.demand_miss_rate::.cpu.data        0.379378                       # miss rate for demand accesses
system.l2.demand_miss_rate::total            0.380170                       # miss rate for demand accesses
system.l2.overall_miss_rate::.cpu.inst       0.868047                       # miss rate for overall accesses
system.l2.overall_miss_rate::.cpu.data       0.379378                       # miss rate for overall accesses
system.l2.overall_miss_rate::total           0.380170                       # miss rate for overall accesses
system.l2.demand_avg_miss_latency::.cpu.inst 78002.980626                       # average overall miss latency
system.l2.demand_avg_miss_latency::.cpu.data 82385.086758                       # average overall miss latency
system.l2.demand_avg_miss_latency::total 82368.877582                       # average overall miss latency
system.l2.overall_avg_miss_latency::.cpu.inst 78002.980626                       # average overall miss latency
system.l2.overall_avg_miss_latency::.cpu.data 82385.086758                       # average overall miss latency
system.l2.overall_avg_miss_latency::total 82368.877582                       # average overall miss latency
system.l2.blocked_cycles::no_mshrs                  0                       # number of cycles access was blocked
system.l2.blocked_cycles::no_targets                0                       # number of cycles access was blocked
system.l2.blocked::no_mshrs                         0                       # number of cycles access was blocked
system.l2.blocked::no_targets                       0                       # number of cycles access was blocked
system.l2.avg_blocked_cycles::no_mshrs            nan                       # average number of cycles each access was blocked
system.l2.avg_blocked_cycles::no_targets          nan                       # average number of cycles each access was blocked
system.l2.writebacks::.writebacks               63561                       # number of writebacks
system.l2.writebacks::total                     63561                       # number of writebacks
system.l2.demand_mshr_hits::.cpu.data               6                       # number of demand (read+write) MSHR hits
system.l2.demand_mshr_hits::total                   6                       # number of demand (read+write) MSHR hits
system.l2.overall_mshr_hits::.cpu.data              6                       # number of overall MSHR hits
system.l2.overall_mshr_hits::total                  6                       # number of overall MSHR hits
system.l2.demand_mshr_misses::.cpu.inst           671                       # number of demand (read+write) MSHR misses
system.l2.demand_mshr_misses::.cpu.data        180726                       # number of demand (read+write) MSHR misses
system.l2.demand_mshr_misses::total            181397                       # number of demand (read+write) MSHR misses
system.l2.overall_mshr_misses::.cpu.inst          671                       # number of overall MSHR misses
system.l2.overall_mshr_misses::.cpu.data       180726                       # number of overall MSHR misses
system.l2.overall_mshr_misses::total           181397                       # number of overall MSHR misses
system.l2.demand_mshr_miss_latency::.cpu.inst     45630000                       # number of demand (read+write) MSHR miss cycles
system.l2.demand_mshr_miss_latency::.cpu.data  13081984000                       # number of demand (read+write) MSHR miss cycles
system.l2.demand_mshr_miss_latency::total  13127614000                       # number of demand (read+write) MSHR miss cycles
system.l2.overall_mshr_miss_latency::.cpu.inst     45630000                       # number of overall MSHR miss cycles
system.l2.overall_mshr_miss_latency::.cpu.data  13081984000                       # number of overall MSHR miss cycles
system.l2.overall_mshr_miss_latency::total  13127614000                       # number of overall MSHR miss cycles
system.l2.demand_mshr_miss_rate::.cpu.inst     0.868047                       # mshr miss rate for demand accesses
system.l2.demand_mshr_miss_rate::.cpu.data     0.379366                       # mshr miss rate for demand accesses
system.l2.demand_mshr_miss_rate::total       0.380157                       # mshr miss rate for demand accesses
system.l2.overall_mshr_miss_rate::.cpu.inst     0.868047                       # mshr miss rate for overall accesses
system.l2.overall_mshr_miss_rate::.cpu.data     0.379366                       # mshr miss rate for overall accesses
system.l2.overall_mshr_miss_rate::total      0.380157                       # mshr miss rate for overall accesses
system.l2.demand_avg_mshr_miss_latency::.cpu.inst 68002.980626                       # average overall mshr miss latency
system.l2.demand_avg_mshr_miss_latency::.cpu.data 72385.733099                       # average overall mshr miss latency
system.l2.demand_avg_mshr_miss_latency::total 72369.520995                       # average overall mshr miss latency
system.l2.overall_avg_mshr_miss_latency::.cpu.inst 68002.980626                       # average overall mshr miss latency
system.l2.overall_avg_mshr_miss_latency::.cpu.data 72385.733099                       # average overall mshr miss latency
system.l2.overall_avg_mshr_miss_latency::total 72369.520995                       # average overall mshr miss latency
system.l2.replacements                         115995                       # number of replacements
system.l2.WritebackDirty_hits::.writebacks       419042                       # number of WritebackDirty hits
system.l2.WritebackDirty_hits::total           419042                       # number of WritebackDirty hits
system.l2.WritebackDirty_accesses::.writebacks       419042                       # number of WritebackDirty accesses(hits+misses)
system.l2.WritebackDirty_accesses::total       419042                       # number of WritebackDirty accesses(hits+misses)
system.l2.WritebackClean_hits::.writebacks          324                       # number of WritebackClean hits
system.l2.WritebackClean_hits::total              324                       # number of WritebackClean hits
system.l2.WritebackClean_accesses::.writebacks          324                       # number of WritebackClean accesses(hits+misses)
system.l2.WritebackClean_accesses::total          324                       # number of WritebackClean accesses(hits+misses)
system.l2.CleanEvict_mshr_misses::.writebacks         1100                       # number of CleanEvict MSHR misses
system.l2.CleanEvict_mshr_misses::total          1100                       # number of CleanEvict MSHR misses
system.l2.CleanEvict_mshr_miss_rate::.writebacks          inf                       # mshr miss rate for CleanEvict accesses
system.l2.CleanEvict_mshr_miss_rate::total          inf                       # mshr miss rate for CleanEvict accesses
system.l2.ReadExReq_hits::.cpu.data            100298                       # number of ReadExReq hits
system.l2.ReadExReq_hits::total                100298                       # number of ReadExReq hits
system.l2.ReadExReq_misses::.cpu.data          127719                       # number of ReadExReq misses
system.l2.ReadExReq_misses::total              127719                       # number of ReadExReq misses
system.l2.ReadExReq_miss_latency::.cpu.data  10829100500                       # number of ReadExReq miss cycles
system.l2.ReadExReq_miss_latency::total   10829100500                       # number of ReadExReq miss cycles
system.l2.ReadExReq_accesses::.cpu.data        228017                       # number of ReadExReq accesses(hits+misses)
system.l2.ReadExReq_accesses::total            228017                       # number of ReadExReq accesses(hits+misses)
system.l2.ReadExReq_miss_rate::.cpu.data     0.560129                       # miss rate for ReadExReq accesses
system.l2.ReadExReq_miss_rate::total         0.560129                       # miss rate for ReadExReq accesses
system.l2.ReadExReq_avg_miss_latency::.cpu.data 84788.484877                       # average ReadExReq miss latency
system.l2.ReadExReq_avg_miss_latency::total 84788.484877                       # average ReadExReq miss latency
system.l2.ReadExReq_mshr_misses::.cpu.data       127719                       # number of ReadExReq MSHR misses
system.l2.ReadExReq_mshr_misses::total         127719                       # number of ReadExReq MSHR misses
system.l2.ReadExReq_mshr_miss_latency::.cpu.data   9551910500                       # number of ReadExReq MSHR miss cycles
system.l2.ReadExReq_mshr_miss_latency::total   9551910500                       # number of ReadExReq MSHR miss cycles
system.l2.ReadExReq_mshr_miss_rate::.cpu.data     0.560129                       # mshr miss rate for ReadExReq accesses
system.l2.ReadExReq_mshr_miss_rate::total     0.560129                       # mshr miss rate for ReadExReq accesses
system.l2.ReadExReq_avg_mshr_miss_latency::.cpu.data 74788.484877                       # average ReadExReq mshr miss latency
system.l2.ReadExReq_avg_mshr_miss_latency::total 74788.484877                       # average ReadExReq mshr miss latency
system.l2.ReadCleanReq_hits::.cpu.inst            102                       # number of ReadCleanReq hits
system.l2.ReadCleanReq_hits::total                102                       # number of ReadCleanReq hits
system.l2.ReadCleanReq_misses::.cpu.inst          671                       # number of ReadCleanReq misses
system.l2.ReadCleanReq_misses::total              671                       # number of ReadCleanReq misses
system.l2.ReadCleanReq_miss_latency::.cpu.inst     52340000                       # number of ReadCleanReq miss cycles
system.l2.ReadCleanReq_miss_latency::total     52340000                       # number of ReadCleanReq miss cycles
system.l2.ReadCleanReq_accesses::.cpu.inst          773                       # number of ReadCleanReq accesses(hits+misses)
system.l2.ReadCleanReq_accesses::total            773                       # number of ReadCleanReq accesses(hits+misses)
system.l2.ReadCleanReq_miss_rate::.cpu.inst     0.868047                       # miss rate for ReadCleanReq accesses
system.l2.ReadCleanReq_miss_rate::total      0.868047                       # miss rate for ReadCleanReq accesses
system.l2.ReadCleanReq_avg_miss_latency::.cpu.inst 78002.980626                       # average ReadCleanReq miss latency
system.l2.ReadCleanReq_avg_miss_latency::total 78002.980626                       # average ReadCleanReq miss latency
system.l2.ReadCleanReq_mshr_misses::.cpu.inst          671                       # number of ReadCleanReq MSHR misses
system.l2.ReadCleanReq_mshr_misses::total          671                       # number of ReadCleanReq MSHR misses
system.l2.ReadCleanReq_mshr_miss_latency::.cpu.inst     45630000                       # number of ReadCleanReq MSHR miss cycles
system.l2.ReadCleanReq_mshr_miss_latency::total     45630000                       # number of ReadCleanReq MSHR miss cycles
system.l2.ReadCleanReq_mshr_miss_rate::.cpu.inst     0.868047                       # mshr miss rate for ReadCleanReq accesses
system.l2.ReadCleanReq_mshr_miss_rate::total     0.868047                       # mshr miss rate for ReadCleanReq accesses
system.l2.ReadCleanReq_avg_mshr_miss_latency::.cpu.inst 68002.980626                       # average ReadCleanReq mshr miss latency
system.l2.ReadCleanReq_avg_mshr_miss_latency::total 68002.980626                       # average ReadCleanReq mshr miss latency
system.l2.ReadSharedReq_hits::.cpu.data        195360                       # number of ReadSharedReq hits
system.l2.ReadSharedReq_hits::total            195360                       # number of ReadSharedReq hits
system.l2.ReadSharedReq_misses::.cpu.data        53013                       # number of ReadSharedReq misses
system.l2.ReadSharedReq_misses::total           53013                       # number of ReadSharedReq misses
system.l2.ReadSharedReq_miss_latency::.cpu.data   4060521000                       # number of ReadSharedReq miss cycles
system.l2.ReadSharedReq_miss_latency::total   4060521000                       # number of ReadSharedReq miss cycles
system.l2.ReadSharedReq_accesses::.cpu.data       248373                       # number of ReadSharedReq accesses(hits+misses)
system.l2.ReadSharedReq_accesses::total        248373                       # number of ReadSharedReq accesses(hits+misses)
system.l2.ReadSharedReq_miss_rate::.cpu.data     0.213441                       # miss rate for ReadSharedReq accesses
system.l2.ReadSharedReq_miss_rate::total     0.213441                       # miss rate for ReadSharedReq accesses
system.l2.ReadSharedReq_avg_miss_latency::.cpu.data 76594.816366                       # average ReadSharedReq miss latency
system.l2.ReadSharedReq_avg_miss_latency::total 76594.816366                       # average ReadSharedReq miss latency
system.l2.ReadSharedReq_mshr_hits::.cpu.data            6                       # number of ReadSharedReq MSHR hits
system.l2.ReadSharedReq_mshr_hits::total            6                       # number of ReadSharedReq MSHR hits
system.l2.ReadSharedReq_mshr_misses::.cpu.data        53007                       # number of ReadSharedReq MSHR misses
system.l2.ReadSharedReq_mshr_misses::total        53007                       # number of ReadSharedReq MSHR misses
system.l2.ReadSharedReq_mshr_miss_latency::.cpu.data   3530073500                       # number of ReadSharedReq MSHR miss cycles
system.l2.ReadSharedReq_mshr_miss_latency::total   3530073500                       # number of ReadSharedReq MSHR miss cycles
system.l2.ReadSharedReq_mshr_miss_rate::.cpu.data     0.213417                       # mshr miss rate for ReadSharedReq accesses
system.l2.ReadSharedReq_mshr_miss_rate::total     0.213417                       # mshr miss rate for ReadSharedReq accesses
system.l2.ReadSharedReq_avg_mshr_miss_latency::.cpu.data 66596.364631                       # average ReadSharedReq mshr miss latency
system.l2.ReadSharedReq_avg_mshr_miss_latency::total 66596.364631                       # average ReadSharedReq mshr miss latency
system.l2.power_state.pwrStateResidencyTicks::UNDEFINED  80489292500                       # Cumulative time (in ticks) in various power states
system.l2.tags.tagsinuse                 63119.712310                       # Cycle average of tags in use
system.l2.tags.total_refs                      950673                       # Total number of references to valid blocks.
system.l2.tags.sampled_refs                    181531                       # Sample count of references to valid blocks.
system.l2.tags.avg_refs                      5.236973                       # Average number of references to valid blocks.
system.l2.tags.warmup_cycle                     77000                       # Cycle when the warmup percentage was hit.
system.l2.tags.occ_blocks::.writebacks      80.775286                       # Average occupied blocks per requestor
system.l2.tags.occ_blocks::.cpu.inst       128.629664                       # Average occupied blocks per requestor
system.l2.tags.occ_blocks::.cpu.data     62910.307360                       # Average occupied blocks per requestor
system.l2.tags.occ_percent::.writebacks      0.001233                       # Average percentage of cache occupancy
system.l2.tags.occ_percent::.cpu.inst        0.001963                       # Average percentage of cache occupancy
system.l2.tags.occ_percent::.cpu.data        0.959935                       # Average percentage of cache occupancy
system.l2.tags.occ_percent::total            0.963130                       # Average percentage of cache occupancy
system.l2.tags.occ_task_id_blocks::1024         65536                       # Occupied blocks per task id
system.l2.tags.age_task_id_blocks_1024::1            5                       # Occupied blocks per task id
system.l2.tags.age_task_id_blocks_1024::2            8                       # Occupied blocks per task id
system.l2.tags.age_task_id_blocks_1024::3         5828                       # Occupied blocks per task id
system.l2.tags.age_task_id_blocks_1024::4        59695                       # Occupied blocks per task id
system.l2.tags.occ_task_id_percent::1024            1                       # Percentage of cache occupancy per task id
system.l2.tags.tag_accesses                   3988647                       # Number of tag accesses
system.l2.tags.data_accesses                  3988647                       # Number of data accesses
system.l2.tags.power_state.pwrStateResidencyTicks::UNDEFINED  80489292500                       # Cumulative time (in ticks) in various power states
system.cpu_voltage_domain.voltage                   1                       # Voltage in Volts
system.mem_ctrls.avgPriority_.writebacks::samples     63561.00                       # Average QoS priority value for accepted requests
system.mem_ctrls.avgPriority_.cpu.inst::samples       671.00                       # Average QoS priority value for accepted requests
system.mem_ctrls.avgPriority_.cpu.data::samples    180710.00                       # Average QoS priority value for accepted requests
system.mem_ctrls.priorityMinLatency      0.000000018750                       # per QoS priority minimum request to response latency (s)
system.mem_ctrls.priorityMaxLatency      0.007974178500                       # per QoS priority maximum request to response latency (s)
system.mem_ctrls.numReadWriteTurnArounds         3828                       # Number of turnarounds from READ to WRITE
system.mem_ctrls.numWriteReadTurnArounds         3828                       # Number of turnarounds from WRITE to READ
system.mem_ctrls.numStayReadState              440310                       # Number of times bus staying in READ state
system.mem_ctrls.numStayWriteState              59790                       # Number of times bus staying in WRITE state
system.mem_ctrls.readReqs                      181397                       # Number of read requests accepted
system.mem_ctrls.writeReqs                      63561                       # Number of write requests accepted
system.mem_ctrls.readBursts                    181397                       # Number of controller read bursts, including those serviced by the write queue
system.mem_ctrls.writeBursts                    63561                       # Number of controller write bursts, including those merged in the write queue
system.mem_ctrls.servicedByWrQ                     16                       # Number of controller read bursts serviced by the write queue
system.mem_ctrls.mergedWrBursts                     0                       # Number of controller write bursts merged with an existing one
system.mem_ctrls.neitherReadNorWriteReqs            0                       # Number of requests that are neither read nor write
system.mem_ctrls.avgRdQLen                       1.08                       # Average read queue length when enqueuing
system.mem_ctrls.avgWrQLen                      24.58                       # Average write queue length when enqueuing
system.mem_ctrls.numRdRetry                         0                       # Number of times read queue was full causing retry
system.mem_ctrls.numWrRetry                         0                       # Number of times write queue was full causing retry
system.mem_ctrls.readPktSize::0                     0                       # Read request sizes (log2)
system.mem_ctrls.readPktSize::1                     0                       # Read request sizes (log2)
system.mem_ctrls.readPktSize::2                     0                       # Read request sizes (log2)
system.mem_ctrls.readPktSize::3                     0                       # Read request sizes (log2)
system.mem_ctrls.readPktSize::4                     0                       # Read request sizes (log2)
system.mem_ctrls.readPktSize::5                     0                       # Read request sizes (log2)
system.mem_ctrls.readPktSize::6                181397                       # Read request sizes (log2)
system.mem_ctrls.writePktSize::0                    0                       # Write request sizes (log2)
system.mem_ctrls.writePktSize::1                    0                       # Write request sizes (log2)
system.mem_ctrls.writePktSize::2                    0                       # Write request sizes (log2)
system.mem_ctrls.writePktSize::3                    0                       # Write request sizes (log2)
system.mem_ctrls.writePktSize::4                    0                       # Write request sizes (log2)
system.mem_ctrls.writePktSize::5                    0                       # Write request sizes (log2)
system.mem_ctrls.writePktSize::6                63561                       # Write request sizes (log2)
system.mem_ctrls.rdQLenPdf::0                  121607                       # What read queue length does an incoming req see
system.mem_ctrls.rdQLenPdf::1                   56664                       # What read queue length does an incoming req see
system.mem_ctrls.rdQLenPdf::2                    2682                       # What read queue length does an incoming req see
system.mem_ctrls.rdQLenPdf::3                     427                       # What read queue length does an incoming req see
system.mem_ctrls.rdQLenPdf::4                       1                       # What read queue length does an incoming req see
system.mem_ctrls.rdQLenPdf::5                       0                       # What read queue length does an incoming req see
system.mem_ctrls.rdQLenPdf::6                       0                       # What read queue length does an incoming req see
system.mem_ctrls.rdQLenPdf::7                       0                       # What read queue length does an incoming req see
system.mem_ctrls.rdQLenPdf::8                       0                       # What read queue length does an incoming req see
system.mem_ctrls.rdQLenPdf::9                       0                       # What read queue length does an incoming req see
system.mem_ctrls.rdQLenPdf::10                      0                       # What read queue length does an incoming req see
system.mem_ctrls.rdQLenPdf::11                      0                       # What read queue length does an incoming req see
system.mem_ctrls.rdQLenPdf::12                      0                       # What read queue length does an incoming req see
system.mem_ctrls.rdQLenPdf::13                      0                       # What read queue length does an incoming req see
system.mem_ctrls.rdQLenPdf::14                      0                       # What read queue length does an incoming req see
system.mem_ctrls.rdQLenPdf::15                      0                       # What read queue length does an incoming req see
system.mem_ctrls.rdQLenPdf::16                      0                       # What read queue length does an incoming req see
system.mem_ctrls.rdQLenPdf::17                      0                       # What read queue length does an incoming req see
system.mem_ctrls.rdQLenPdf::18                      0                       # What read queue length does an incoming req see
system.mem_ctrls.rdQLenPdf::19                      0                       # What read queue length does an incoming req see
system.mem_ctrls.rdQLenPdf::20                      0                       # What read queue length does an incoming req see
system.mem_ctrls.rdQLenPdf::21                      0                       # What read queue length does an incoming req see
system.mem_ctrls.rdQLenPdf::22                      0                       # What read queue length does an incoming req see
system.mem_ctrls.rdQLenPdf::23                      0                       # What read queue length does an incoming req see
system.mem_ctrls.rdQLenPdf::24                      0                       # What read queue length does an incoming req see
system.mem_ctrls.rdQLenPdf::25                      0                       # What read queue length does an incoming req see
system.mem_ctrls.rdQLenPdf::26                      0                       # What read queue length does an incoming req see
system.mem_ctrls.rdQLenPdf::27                      0                       # What read queue length does an incoming req see
system.mem_ctrls.rdQLenPdf::28                      0                       # What read queue length does an incoming req see
system.mem_ctrls.rdQLenPdf::29                      0                       # What read queue length does an incoming req see
system.mem_ctrls.rdQLenPdf::30                      0                       # What read queue length does an incoming req see
system.mem_ctrls.rdQLenPdf::31                      0                       # What read queue length does an incoming req see
system.mem_ctrls.wrQLenPdf::0                       1                       # What write queue length does an incoming req see
system.mem_ctrls.wrQLenPdf::1                       1                       # What write queue length does an incoming req see
system.mem_ctrls.wrQLenPdf::2                       1                       # What write queue length does an incoming req see
system.mem_ctrls.wrQLenPdf::3                       1                       # What write queue length does an incoming req see
system.mem_ctrls.wrQLenPdf::4                       1                       # What write queue length does an incoming req see
system.mem_ctrls.wrQLenPdf::5                       1                       # What write queue length does an incoming req see
system.mem_ctrls.wrQLenPdf::6                       1                       # What write queue length does an incoming req see
system.mem_ctrls.wrQLenPdf::7                       1                       # What write queue length does an incoming req see
system.mem_ctrls.wrQLenPdf::8                       1                       # What write queue length does an incoming req see
system.mem_ctrls.wrQLenPdf::9                       1                       # What write queue length does an incoming req see
system.mem_ctrls.wrQLenPdf::10                      1                       # What write queue length does an incoming req see
system.mem_ctrls.wrQLenPdf::11                      1                       # What write queue length does an incoming req see
system.mem_ctrls.wrQLenPdf::12                      1                       # What write queue length does an incoming req see
system.mem_ctrls.wrQLenPdf::13                      1                       # What write queue length does an incoming req see
system.mem_ctrls.wrQLenPdf::14                      1                       # What write queue length does an incoming req see
system.mem_ctrls.wrQLenPdf::15                   1116                       # What write queue length does an incoming req see
system.mem_ctrls.wrQLenPdf::16                   1128                       # What write queue length does an incoming req see
system.mem_ctrls.wrQLenPdf::17                   2892                       # What write queue length does an incoming req see
system.mem_ctrls.wrQLenPdf::18                   3768                       # What write queue length does an incoming req see
system.mem_ctrls.wrQLenPdf::19                   3782                       # What write queue length does an incoming req see
system.mem_ctrls.wrQLenPdf::20                   3928                       # What write queue length does an incoming req see
system.mem_ctrls.wrQLenPdf::21                   3855                       # What write queue length does an incoming req see
system.mem_ctrls.wrQLenPdf::22                   3924                       # What write queue length does an incoming req see
system.mem_ctrls.wrQLenPdf::23                   3860                       # What write queue length does an incoming req see
system.mem_ctrls.wrQLenPdf::24                   3845                       # What write queue length does an incoming req see
system.mem_ctrls.wrQLenPdf::25                   4015                       # What write queue length does an incoming req see
system.mem_ctrls.wrQLenPdf::26                   3865                       # What write queue length does an incoming req see
system.mem_ctrls.wrQLenPdf::27                   3848                       # What write queue length does an incoming req see
system.mem_ctrls.wrQLenPdf::28                   4242                       # What write queue length does an incoming req see
system.mem_ctrls.wrQLenPdf::29                   3867                       # What write queue length does an incoming req see
system.mem_ctrls.wrQLenPdf::30                   3848                       # What write queue length does an incoming req see
system.mem_ctrls.wrQLenPdf::31                   3906                       # What write queue length does an incoming req see
system.mem_ctrls.wrQLenPdf::32                   3855                       # What write queue length does an incoming req see
system.mem_ctrls.wrQLenPdf::33                      2                       # What write queue length does an incoming req see
system.mem_ctrls.wrQLenPdf::34                      0                       # What write queue length does an incoming req see
system.mem_ctrls.wrQLenPdf::35                      0                       # What write queue length does an incoming req see
system.mem_ctrls.wrQLenPdf::36                      0                       # What write queue length does an incoming req see
system.mem_ctrls.wrQLenPdf::37                      0                       # What write queue length does an incoming req see
system.mem_ctrls.wrQLenPdf::38                      0                       # What write queue length does an incoming req see
system.mem_ctrls.wrQLenPdf::39                      0                       # What write queue length does an incoming req see
system.mem_ctrls.wrQLenPdf::40                      0                       # What write queue length does an incoming req see
system.mem_ctrls.wrQLenPdf::41                      0                       # What write queue length does an incoming req see
system.mem_ctrls.wrQLenPdf::42                      0                       # What write queue length does an incoming req see
system.mem_ctrls.wrQLenPdf::43                      0                       # What write queue length does an incoming req see
system.mem_ctrls.wrQLenPdf::44                      0                       # What write queue length does an incoming req see
system.mem_ctrls.wrQLenPdf::45                      0                       # What write queue length does an incoming req see
system.mem_ctrls.wrQLenPdf::46                      0                       # What write queue length does an incoming req see
system.mem_ctrls.wrQLenPdf::47                      0                       # What write queue length does an incoming req see
system.mem_ctrls.wrQLenPdf::48                      0                       # What write queue length does an incoming req see
system.mem_ctrls.wrQLenPdf::49                      0                       # What write queue length does an incoming req see
system.mem_ctrls.wrQLenPdf::50                      0                       # What write queue length does an incoming req see
system.mem_ctrls.wrQLenPdf::51                      0                       # What write queue length does an incoming req see
system.mem_ctrls.wrQLenPdf::52                      0                       # What write queue length does an incoming req see
system.mem_ctrls.wrQLenPdf::53                      0                       # What write queue length does an incoming req see
system.mem_ctrls.wrQLenPdf::54                      0                       # What write queue length does an incoming req see
system.mem_ctrls.wrQLenPdf::55                      0                       # What write queue length does an incoming req see
system.mem_ctrls.wrQLenPdf::56                      0                       # What write queue length does an incoming req see
system.mem_ctrls.wrQLenPdf::57                      0                       # What write queue length does an incoming req see
system.mem_ctrls.wrQLenPdf::58                      0                       # What write queue length does an incoming req see
system.mem_ctrls.wrQLenPdf::59                      0                       # What write queue length does an incoming req see
system.mem_ctrls.wrQLenPdf::60                      0                       # What write queue length does an incoming req see
system.mem_ctrls.wrQLenPdf::61                      0                       # What write queue length does an incoming req see
system.mem_ctrls.wrQLenPdf::62                      0                       # What write queue length does an incoming req see
system.mem_ctrls.wrQLenPdf::63                      0                       # What write queue length does an incoming req see
system.mem_ctrls.rdPerTurnAround::samples         3828                       # Reads before turning the bus around for writes
system.mem_ctrls.rdPerTurnAround::mean      47.382445                       # Reads before turning the bus around for writes
system.mem_ctrls.rdPerTurnAround::gmean     28.275312                       # Reads before turning the bus around for writes
system.mem_ctrls.rdPerTurnAround::stdev    101.153062                       # Reads before turning the bus around for writes
system.mem_ctrls.rdPerTurnAround::0-255          3558     92.95%     92.95% # Reads before turning the bus around for writes
system.mem_ctrls.rdPerTurnAround::256-511          260      6.79%     99.74% # Reads before turning the bus around for writes
system.mem_ctrls.rdPerTurnAround::512-767            9      0.24%     99.97% # Reads before turning the bus around for writes
system.mem_ctrls.rdPerTurnAround::4352-4607            1      0.03%    100.00% # Reads before turning the bus around for writes
system.mem_ctrls.rdPerTurnAround::total          3828                       # Reads before turning the bus around for writes
system.mem_ctrls.wrPerTurnAround::samples         3828                       # Writes before turning the bus around for reads
system.mem_ctrls.wrPerTurnAround::mean      16.600052                       # Writes before turning the bus around for reads
system.mem_ctrls.wrPerTurnAround::gmean     16.574398                       # Writes before turning the bus around for reads
system.mem_ctrls.wrPerTurnAround::stdev      0.939881                       # Writes before turning the bus around for reads
system.mem_ctrls.wrPerTurnAround::16             2699     70.51%     70.51% # Writes before turning the bus around for reads
system.mem_ctrls.wrPerTurnAround::17               13      0.34%     70.85% # Writes before turning the bus around for reads
system.mem_ctrls.wrPerTurnAround::18             1073     28.03%     98.88% # Writes before turning the bus around for reads
system.mem_ctrls.wrPerTurnAround::19               36      0.94%     99.82% # Writes before turning the bus around for reads
system.mem_ctrls.wrPerTurnAround::20                5      0.13%     99.95% # Writes before turning the bus around for reads
system.mem_ctrls.wrPerTurnAround::21                2      0.05%    100.00% # Writes before turning the bus around for reads
system.mem_ctrls.wrPerTurnAround::total          3828                       # Writes before turning the bus around for reads
system.mem_ctrls.bytesReadWrQ                    1024                       # Total number of bytes read from write queue
system.mem_ctrls.bytesReadSys                11609408                       # Total read bytes from the system interface side
system.mem_ctrls.bytesWrittenSys              4067904                       # Total written bytes from the system interface side
system.mem_ctrls.avgRdBWSys                    144.24                       # Average system read bandwidth in MiByte/s
system.mem_ctrls.avgWrBWSys                     50.54                       # Average system write bandwidth in MiByte/s
system.mem_ctrls.totGap                   80409524000                       # Total gap between requests
system.mem_ctrls.avgGap                     328258.41                       # Average gap between requests
system.mem_ctrls.requestorReadBytes::.cpu.inst        42944                       # Per-requestor bytes read from memory
system.mem_ctrls.requestorReadBytes::.cpu.data     11565440                       # Per-requestor bytes read from memory
system.mem_ctrls.requestorWriteBytes::.writebacks      4066880                       # Per-requestor bytes write to memory
system.mem_ctrls.requestorReadRate::.cpu.inst 533536.805532238912                       # Per-requestor bytes read from memory rate (Bytes/sec)
system.mem_ctrls.requestorReadRate::.cpu.data 143689174.556975990534                       # Per-requestor bytes read from memory rate (Bytes/sec)
system.mem_ctrls.requestorWriteRate::.writebacks 50526969.161767691374                       # Per-requestor bytes write to memory rate (Bytes/sec)
system.mem_ctrls.requestorReadAccesses::.cpu.inst          671                       # Per-requestor read serviced memory accesses
system.mem_ctrls.requestorReadAccesses::.cpu.data       180726                       # Per-requestor read serviced memory accesses
system.mem_ctrls.requestorWriteAccesses::.writebacks        63561                       # Per-requestor write serviced memory accesses
system.mem_ctrls.requestorReadTotalLat::.cpu.inst     18137250                       # Per-requestor read total memory access latency
system.mem_ctrls.requestorReadTotalLat::.cpu.data   5632407250                       # Per-requestor read total memory access latency
system.mem_ctrls.requestorWriteTotalLat::.writebacks 1885389494250                       # Per-requestor write total memory access latency
system.mem_ctrls.requestorReadAvgLat::.cpu.inst     27030.18                       # Per-requestor read average memory access latency
system.mem_ctrls.requestorReadAvgLat::.cpu.data     31165.45                       # Per-requestor read average memory access latency
system.mem_ctrls.requestorWriteAvgLat::.writebacks  29662678.28                       # Per-requestor write average memory access latency
system.mem_ctrls.dram.bytes_read::.cpu.inst        42944                       # Number of bytes read from this memory
system.mem_ctrls.dram.bytes_read::.cpu.data     11566464                       # Number of bytes read from this memory
system.mem_ctrls.dram.bytes_read::total      11609408                       # Number of bytes read from this memory
system.mem_ctrls.dram.bytes_inst_read::.cpu.inst        42944                       # Number of instructions bytes read from this memory
system.mem_ctrls.dram.bytes_inst_read::total        42944                       # Number of instructions bytes read from this memory
system.mem_ctrls.dram.bytes_written::.writebacks      4067904                       # Number of bytes written to this memory
system.mem_ctrls.dram.bytes_written::total      4067904                       # Number of bytes written to this memory
system.mem_ctrls.dram.num_reads::.cpu.inst          671                       # Number of read requests responded to by this memory
system.mem_ctrls.dram.num_reads::.cpu.data       180726                       # Number of read requests responded to by this memory
system.mem_ctrls.dram.num_reads::total         181397                       # Number of read requests responded to by this memory
system.mem_ctrls.dram.num_writes::.writebacks        63561                       # Number of write requests responded to by this memory
system.mem_ctrls.dram.num_writes::total         63561                       # Number of write requests responded to by this memory
system.mem_ctrls.dram.bw_read::.cpu.inst       533537                       # Total read bandwidth from this memory (bytes/s)
system.mem_ctrls.dram.bw_read::.cpu.data    143701897                       # Total read bandwidth from this memory (bytes/s)
system.mem_ctrls.dram.bw_read::total        144235434                       # Total read bandwidth from this memory (bytes/s)
system.mem_ctrls.dram.bw_inst_read::.cpu.inst       533537                       # Instruction read bandwidth from this memory (bytes/s)
system.mem_ctrls.dram.bw_inst_read::total       533537                       # Instruction read bandwidth from this memory (bytes/s)
system.mem_ctrls.dram.bw_write::.writebacks     50539691                       # Write bandwidth from this memory (bytes/s)
system.mem_ctrls.dram.bw_write::total        50539691                       # Write bandwidth from this memory (bytes/s)
system.mem_ctrls.dram.bw_total::.writebacks     50539691                       # Total bandwidth to/from this memory (bytes/s)
system.mem_ctrls.dram.bw_total::.cpu.inst       533537                       # Total bandwidth to/from this memory (bytes/s)
system.mem_ctrls.dram.bw_total::.cpu.data    143701897                       # Total bandwidth to/from this memory (bytes/s)
system.mem_ctrls.dram.bw_total::total       194775125                       # Total bandwidth to/from this memory (bytes/s)
system.mem_ctrls.dram.readBursts               181381                       # Number of DRAM read bursts
system.mem_ctrls.dram.writeBursts               63545                       # Number of DRAM write bursts
system.mem_ctrls.dram.perBankRdBursts::0        11450                       # Per bank write bursts
system.mem_ctrls.dram.perBankRdBursts::1        11514                       # Per bank write bursts
system.mem_ctrls.dram.perBankRdBursts::2        11421                       # Per bank write bursts
system.mem_ctrls.dram.perBankRdBursts::3        11494                       # Per bank write bursts
system.mem_ctrls.dram.perBankRdBursts::4        11424                       # Per bank write bursts
system.mem_ctrls.dram.perBankRdBursts::5        11275                       # Per bank write bursts
system.mem_ctrls.dram.perBankRdBursts::6        11319                       # Per bank write bursts
system.mem_ctrls.dram.perBankRdBursts::7        11159                       # Per bank write bursts
system.mem_ctrls.dram.perBankRdBursts::8        11344                       # Per bank write bursts
system.mem_ctrls.dram.perBankRdBursts::9        11106                       # Per bank write bursts
system.mem_ctrls.dram.perBankRdBursts::10        11323                       # Per bank write bursts
system.mem_ctrls.dram.perBankRdBursts::11        11402                       # Per bank write bursts
system.mem_ctrls.dram.perBankRdBursts::12        11309                       # Per bank write bursts
system.mem_ctrls.dram.perBankRdBursts::13        11362                       # Per bank write bursts
system.mem_ctrls.dram.perBankRdBursts::14        11302                       # Per bank write bursts
system.mem_ctrls.dram.perBankRdBursts::15        11177                       # Per bank write bursts
system.mem_ctrls.dram.perBankWrBursts::0         3956                       # Per bank write bursts
system.mem_ctrls.dram.perBankWrBursts::1         4134                       # Per bank write bursts
system.mem_ctrls.dram.perBankWrBursts::2         4122                       # Per bank write bursts
system.mem_ctrls.dram.perBankWrBursts::3         4072                       # Per bank write bursts
system.mem_ctrls.dram.perBankWrBursts::4         4086                       # Per bank write bursts
system.mem_ctrls.dram.perBankWrBursts::5         4038                       # Per bank write bursts
system.mem_ctrls.dram.perBankWrBursts::6         4074                       # Per bank write bursts
system.mem_ctrls.dram.perBankWrBursts::7         3944                       # Per bank write bursts
system.mem_ctrls.dram.perBankWrBursts::8         3963                       # Per bank write bursts
system.mem_ctrls.dram.perBankWrBursts::9         3816                       # Per bank write bursts
system.mem_ctrls.dram.perBankWrBursts::10         3895                       # Per bank write bursts
system.mem_ctrls.dram.perBankWrBursts::11         3899                       # Per bank write bursts
system.mem_ctrls.dram.perBankWrBursts::12         3881                       # Per bank write bursts
system.mem_ctrls.dram.perBankWrBursts::13         3892                       # Per bank write bursts
system.mem_ctrls.dram.perBankWrBursts::14         3892                       # Per bank write bursts
system.mem_ctrls.dram.perBankWrBursts::15         3881                       # Per bank write bursts
system.mem_ctrls.dram.totQLat              2249650750                       # Total ticks spent queuing
system.mem_ctrls.dram.totBusLat             906905000                       # Total ticks spent in databus transfers
system.mem_ctrls.dram.totMemAccLat         5650544500                       # Total ticks spent from burst creation until serviced by the DRAM
system.mem_ctrls.dram.avgQLat                12402.90                       # Average queueing delay per DRAM burst
system.mem_ctrls.dram.avgBusLat               5000.00                       # Average bus latency per DRAM burst
system.mem_ctrls.dram.avgMemAccLat           31152.90                       # Average memory access latency per DRAM burst
system.mem_ctrls.dram.readRowHits              132545                       # Number of row buffer hits during reads
system.mem_ctrls.dram.writeRowHits              50017                       # Number of row buffer hits during writes
system.mem_ctrls.dram.readRowHitRate            73.08                       # Row buffer hit rate for reads
system.mem_ctrls.dram.writeRowHitRate           78.71                       # Row buffer hit rate for writes
system.mem_ctrls.dram.bytesPerActivate::samples        62364                       # Bytes accessed per row activation
system.mem_ctrls.dram.bytesPerActivate::mean   251.351164                       # Bytes accessed per row activation
system.mem_ctrls.dram.bytesPerActivate::gmean   138.093231                       # Bytes accessed per row activation
system.mem_ctrls.dram.bytesPerActivate::stdev   302.870514                       # Bytes accessed per row activation
system.mem_ctrls.dram.bytesPerActivate::0-127        35775     57.36%     57.36% # Bytes accessed per row activation
system.mem_ctrls.dram.bytesPerActivate::128-255         8212     13.17%     70.53% # Bytes accessed per row activation
system.mem_ctrls.dram.bytesPerActivate::256-383         1354      2.17%     72.70% # Bytes accessed per row activation
system.mem_ctrls.dram.bytesPerActivate::384-511         1102      1.77%     74.47% # Bytes accessed per row activation
system.mem_ctrls.dram.bytesPerActivate::512-639         8362     13.41%     87.88% # Bytes accessed per row activation
system.mem_ctrls.dram.bytesPerActivate::640-767         1369      2.20%     90.07% # Bytes accessed per row activation
system.mem_ctrls.dram.bytesPerActivate::768-895          380      0.61%     90.68% # Bytes accessed per row activation
system.mem_ctrls.dram.bytesPerActivate::896-1023          373      0.60%     91.28% # Bytes accessed per row activation
system.mem_ctrls.dram.bytesPerActivate::1024-1151         5437      8.72%    100.00% # Bytes accessed per row activation
system.mem_ctrls.dram.bytesPerActivate::total        62364                       # Bytes accessed per row activation
system.mem_ctrls.dram.bytesRead              11608384                       # Total number of bytes read from DRAM
system.mem_ctrls.dram.bytesWritten            4066880                       # Total number of bytes written to DRAM
system.mem_ctrls.dram.avgRdBW              144.222711                       # Average DRAM read bandwidth in MiBytes/s
system.mem_ctrls.dram.avgWrBW               50.526969                       # Average DRAM write bandwidth in MiBytes/s
system.mem_ctrls.dram.peakBW                 12800.00                       # Theoretical peak bandwidth in MiByte/s
system.mem_ctrls.dram.busUtil                    1.52                       # Data bus utilization in percentage
system.mem_ctrls.dram.busUtilRead                1.13                       # Data bus utilization in percentage for reads
system.mem_ctrls.dram.busUtilWrite               0.39                       # Data bus utilization in percentage for writes
system.mem_ctrls.dram.pageHitRate               74.54                       # Row buffer hit rate, read and write combined
system.mem_ctrls.dram.rank1.actEnergy       219062340                       # Energy for activate commands per rank (pJ)
system.mem_ctrls.dram.rank1.preEnergy       116434395                       # Energy for precharge commands per rank (pJ)
system.mem_ctrls.dram.rank1.readEnergy      644920500                       # Energy for read commands per rank (pJ)
system.mem_ctrls.dram.rank1.writeEnergy     162441180                       # Energy for write commands per rank (pJ)
system.mem_ctrls.dram.rank1.refreshEnergy 6353533680.000001                       # Energy for refresh commands per rank (pJ)
system.mem_ctrls.dram.rank1.actBackEnergy  18537231060                       # Energy for active background per rank (pJ)
system.mem_ctrls.dram.rank1.preBackEnergy  15297588480                       # Energy for precharge background per rank (pJ)
system.mem_ctrls.dram.rank1.actPowerDownEnergy            0                       # Energy for active power-down per rank (pJ)
system.mem_ctrls.dram.rank1.prePowerDownEnergy            0                       # Energy for precharge power-down per rank (pJ)
system.mem_ctrls.dram.rank1.selfRefreshEnergy            0                       # Energy for self refresh per rank (pJ)
system.mem_ctrls.dram.rank1.totalEnergy   41331211635                       # Total energy per rank (pJ)
system.mem_ctrls.dram.rank1.averagePower   513.499502                       # Core power per rank (mW)
system.mem_ctrls.dram.rank1.totalIdleTime            0                       # Total Idle time Per DRAM Rank
system.mem_ctrls.dram.rank1.pwrStateTime::IDLE  39579222250                       # Time in different power states
system.mem_ctrls.dram.rank1.pwrStateTime::REF   2687620000                       # Time in different power states
system.mem_ctrls.dram.rank1.pwrStateTime::SREF            0                       # Time in different power states
system.mem_ctrls.dram.rank1.pwrStateTime::PRE_PDN            0                       # Time in different power states
system.mem_ctrls.dram.rank1.pwrStateTime::ACT  38222450250                       # Time in different power states
system.mem_ctrls.dram.rank1.pwrStateTime::ACT_PDN            0                       # Time in different power states
system.mem_ctrls.dram.rank0.actEnergy       226216620                       # Energy for activate commands per rank (pJ)
system.mem_ctrls.dram.rank0.preEnergy       120236985                       # Energy for precharge commands per rank (pJ)
system.mem_ctrls.dram.rank0.readEnergy      650139840                       # Energy for read commands per rank (pJ)
system.mem_ctrls.dram.rank0.writeEnergy     169263720                       # Energy for write commands per rank (pJ)
system.mem_ctrls.dram.rank0.refreshEnergy 6353533680.000001                       # Energy for refresh commands per rank (pJ)
system.mem_ctrls.dram.rank0.actBackEnergy  19023634290                       # Energy for active background per rank (pJ)
system.mem_ctrls.dram.rank0.preBackEnergy  14887985760                       # Energy for precharge background per rank (pJ)
system.mem_ctrls.dram.rank0.actPowerDownEnergy            0                       # Energy for active power-down per rank (pJ)
system.mem_ctrls.dram.rank0.prePowerDownEnergy            0                       # Energy for precharge power-down per rank (pJ)
system.mem_ctrls.dram.rank0.selfRefreshEnergy            0                       # Energy for self refresh per rank (pJ)
system.mem_ctrls.dram.rank0.totalEnergy   41431010895                       # Total energy per rank (pJ)
system.mem_ctrls.dram.rank0.averagePower   514.739410                       # Core power per rank (mW)
system.mem_ctrls.dram.rank0.totalIdleTime            0                       # Total Idle time Per DRAM Rank
system.mem_ctrls.dram.rank0.pwrStateTime::IDLE  38510692250                       # Time in different power states
system.mem_ctrls.dram.rank0.pwrStateTime::REF   2687620000                       # Time in different power states
system.mem_ctrls.dram.rank0.pwrStateTime::SREF            0                       # Time in different power states
system.mem_ctrls.dram.rank0.pwrStateTime::PRE_PDN            0                       # Time in different power states
system.mem_ctrls.dram.rank0.pwrStateTime::ACT  39290980250                       # Time in different power states
system.mem_ctrls.dram.rank0.pwrStateTime::ACT_PDN            0                       # Time in different power states
system.mem_ctrls.dram.power_state.pwrStateResidencyTicks::UNDEFINED  80489292500                       # Cumulative time (in ticks) in various power states
system.mem_ctrls.power_state.pwrStateResidencyTicks::UNDEFINED  80489292500                       # Cumulative time (in ticks) in various power states
system.cpu_clk_domain.clock                       500                       # Clock period in ticks
system.cpu.thread-8087.numInsts             100000001                       # Number of Instructions committed
system.cpu.thread-8087.numOps               100196356                       # Number of Ops committed
system.cpu.thread-8087.numMemRefs                   0                       # Number of Memory References
system.cpu.icache.demand_hits::.cpu.inst     10277612                       # number of demand (read+write) hits
system.cpu.icache.demand_hits::total         10277612                       # number of demand (read+write) hits
system.cpu.icache.overall_hits::.cpu.inst     10277612                       # number of overall hits
system.cpu.icache.overall_hits::total        10277612                       # number of overall hits
system.cpu.icache.demand_misses::.cpu.inst          773                       # number of demand (read+write) misses
system.cpu.icache.demand_misses::total            773                       # number of demand (read+write) misses
system.cpu.icache.overall_misses::.cpu.inst          773                       # number of overall misses
system.cpu.icache.overall_misses::total           773                       # number of overall misses
system.cpu.icache.demand_miss_latency::.cpu.inst     55363000                       # number of demand (read+write) miss cycles
system.cpu.icache.demand_miss_latency::total     55363000                       # number of demand (read+write) miss cycles
system.cpu.icache.overall_miss_latency::.cpu.inst     55363000                       # number of overall miss cycles
system.cpu.icache.overall_miss_latency::total     55363000                       # number of overall miss cycles
system.cpu.icache.demand_accesses::.cpu.inst     10278385                       # number of demand (read+write) accesses
system.cpu.icache.demand_accesses::total     10278385                       # number of demand (read+write) accesses
system.cpu.icache.overall_accesses::.cpu.inst     10278385                       # number of overall (read+write) accesses
system.cpu.icache.overall_accesses::total     10278385                       # number of overall (read+write) accesses
system.cpu.icache.demand_miss_rate::.cpu.inst     0.000075                       # miss rate for demand accesses
system.cpu.icache.demand_miss_rate::total     0.000075                       # miss rate for demand accesses
system.cpu.icache.overall_miss_rate::.cpu.inst     0.000075                       # miss rate for overall accesses
system.cpu.icache.overall_miss_rate::total     0.000075                       # miss rate for overall accesses
system.cpu.icache.demand_avg_miss_latency::.cpu.inst 71620.957309                       # average overall miss latency
system.cpu.icache.demand_avg_miss_latency::total 71620.957309                       # average overall miss latency
system.cpu.icache.overall_avg_miss_latency::.cpu.inst 71620.957309                       # average overall miss latency
system.cpu.icache.overall_avg_miss_latency::total 71620.957309                       # average overall miss latency
system.cpu.icache.blocked_cycles::no_mshrs            0                       # number of cycles access was blocked
system.cpu.icache.blocked_cycles::no_targets            0                       # number of cycles access was blocked
system.cpu.icache.blocked::no_mshrs                 0                       # number of cycles access was blocked
system.cpu.icache.blocked::no_targets               0                       # number of cycles access was blocked
system.cpu.icache.avg_blocked_cycles::no_mshrs          nan                       # average number of cycles each access was blocked
system.cpu.icache.avg_blocked_cycles::no_targets          nan                       # average number of cycles each access was blocked
system.cpu.icache.writebacks::.writebacks          333                       # number of writebacks
system.cpu.icache.writebacks::total               333                       # number of writebacks
system.cpu.icache.demand_mshr_misses::.cpu.inst          773                       # number of demand (read+write) MSHR misses
system.cpu.icache.demand_mshr_misses::total          773                       # number of demand (read+write) MSHR misses
system.cpu.icache.overall_mshr_misses::.cpu.inst          773                       # number of overall MSHR misses
system.cpu.icache.overall_mshr_misses::total          773                       # number of overall MSHR misses
system.cpu.icache.demand_mshr_miss_latency::.cpu.inst     54590000                       # number of demand (read+write) MSHR miss cycles
system.cpu.icache.demand_mshr_miss_latency::total     54590000                       # number of demand (read+write) MSHR miss cycles
system.cpu.icache.overall_mshr_miss_latency::.cpu.inst     54590000                       # number of overall MSHR miss cycles
system.cpu.icache.overall_mshr_miss_latency::total     54590000                       # number of overall MSHR miss cycles
system.cpu.icache.demand_mshr_miss_rate::.cpu.inst     0.000075                       # mshr miss rate for demand accesses
system.cpu.icache.demand_mshr_miss_rate::total     0.000075                       # mshr miss rate for demand accesses
system.cpu.icache.overall_mshr_miss_rate::.cpu.inst     0.000075                       # mshr miss rate for overall accesses
system.cpu.icache.overall_mshr_miss_rate::total     0.000075                       # mshr miss rate for overall accesses
system.cpu.icache.demand_avg_mshr_miss_latency::.cpu.inst 70620.957309                       # average overall mshr miss latency
system.cpu.icache.demand_avg_mshr_miss_latency::total 70620.957309                       # average overall mshr miss latency
system.cpu.icache.overall_avg_mshr_miss_latency::.cpu.inst 70620.957309                       # average overall mshr miss latency
[...]
system.cpu.dcache.ReadReq_misses::total        240756                       # number of ReadReq misses
system.cpu.dcache.ReadReq_miss_latency::.cpu.data   6067173000                       # number of ReadReq miss cycles
system.cpu.dcache.ReadReq_miss_latency::total   6067173000                       # number of ReadReq miss cycles
system.cpu.dcache.ReadReq_accesses::.cpu.data     41118959                       # number of ReadReq accesses(hits+misses)
system.cpu.dcache.ReadReq_accesses::total     41118959                       # number of ReadReq accesses(hits+misses)
system.cpu.dcache.ReadReq_miss_rate::.cpu.data     0.005855                       # miss rate for ReadReq accesses
system.cpu.dcache.ReadReq_miss_rate::total     0.005855                       # miss rate for ReadReq accesses
system.cpu.dcache.ReadReq_avg_miss_latency::.cpu.data 25200.505906                       # average ReadReq miss latency
system.cpu.dcache.ReadReq_avg_miss_latency::total 25200.505906                       # average ReadReq miss latency
system.cpu.dcache.ReadReq_mshr_hits::.cpu.data          288                       # number of ReadReq MSHR hits
system.cpu.dcache.ReadReq_mshr_hits::total          288                       # number of ReadReq MSHR hits
system.cpu.dcache.ReadReq_mshr_misses::.cpu.data       240468                       # number of ReadReq MSHR misses
system.cpu.dcache.ReadReq_mshr_misses::total       240468                       # number of ReadReq MSHR misses
system.cpu.dcache.ReadReq_mshr_miss_latency::.cpu.data   5814970000                       # number of ReadReq MSHR miss cycles
system.cpu.dcache.ReadReq_mshr_miss_latency::total   5814970000                       # number of ReadReq MSHR miss cycles
system.cpu.dcache.ReadReq_mshr_miss_rate::.cpu.data     0.005848                       # mshr miss rate for ReadReq accesses
system.cpu.dcache.ReadReq_mshr_miss_rate::total     0.005848                       # mshr miss rate for ReadReq accesses
system.cpu.dcache.ReadReq_avg_mshr_miss_latency::.cpu.data 24181.886987                       # average ReadReq mshr miss latency
system.cpu.dcache.ReadReq_avg_mshr_miss_latency::total 24181.886987                       # average ReadReq mshr miss latency
system.cpu.dcache.WriteReq_hits::.cpu.data     10659340                       # number of WriteReq hits
system.cpu.dcache.WriteReq_hits::total       10659340                       # number of WriteReq hits
system.cpu.dcache.WriteReq_misses::.cpu.data       289742                       # number of WriteReq misses
system.cpu.dcache.WriteReq_misses::total       289742                       # number of WriteReq misses
system.cpu.dcache.WriteReq_miss_latency::.cpu.data  14028255000                       # number of WriteReq miss cycles
system.cpu.dcache.WriteReq_miss_latency::total  14028255000                       # number of WriteReq miss cycles
system.cpu.dcache.WriteReq_accesses::.cpu.data     10949082                       # number of WriteReq accesses(hits+misses)
system.cpu.dcache.WriteReq_accesses::total     10949082                       # number of WriteReq accesses(hits+misses)
system.cpu.dcache.WriteReq_miss_rate::.cpu.data     0.026463                       # miss rate for WriteReq accesses
system.cpu.dcache.WriteReq_miss_rate::total     0.026463                       # miss rate for WriteReq accesses
system.cpu.dcache.WriteReq_avg_miss_latency::.cpu.data 48416.366975                       # average WriteReq miss latency
system.cpu.dcache.WriteReq_avg_miss_latency::total 48416.366975                       # average WriteReq miss latency
system.cpu.dcache.WriteReq_mshr_hits::.cpu.data        61725                       # number of WriteReq MSHR hits
system.cpu.dcache.WriteReq_mshr_hits::total        61725                       # number of WriteReq MSHR hits
system.cpu.dcache.WriteReq_mshr_misses::.cpu.data       228017                       # number of WriteReq MSHR misses
system.cpu.dcache.WriteReq_mshr_misses::total       228017                       # number of WriteReq MSHR misses
system.cpu.dcache.WriteReq_mshr_miss_latency::.cpu.data  12224906000                       # number of WriteReq MSHR miss cycles
system.cpu.dcache.WriteReq_mshr_miss_latency::total  12224906000                       # number of WriteReq MSHR miss cycles
system.cpu.dcache.WriteReq_mshr_miss_rate::.cpu.data     0.020825                       # mshr miss rate for WriteReq accesses
system.cpu.dcache.WriteReq_mshr_miss_rate::total     0.020825                       # mshr miss rate for WriteReq accesses
system.cpu.dcache.WriteReq_avg_mshr_miss_latency::.cpu.data 53614.011236                       # average WriteReq mshr miss latency
system.cpu.dcache.WriteReq_avg_mshr_miss_latency::total 53614.011236                       # average WriteReq mshr miss latency
system.cpu.dcache.SoftPFReq_hits::.cpu.data          510                       # number of SoftPFReq hits
system.cpu.dcache.SoftPFReq_hits::total           510                       # number of SoftPFReq hits
system.cpu.dcache.SoftPFReq_misses::.cpu.data         7909                       # number of SoftPFReq misses
system.cpu.dcache.SoftPFReq_misses::total         7909                       # number of SoftPFReq misses
system.cpu.dcache.SoftPFReq_accesses::.cpu.data         8419                       # number of SoftPFReq accesses(hits+misses)
system.cpu.dcache.SoftPFReq_accesses::total         8419                       # number of SoftPFReq accesses(hits+misses)
system.cpu.dcache.SoftPFReq_miss_rate::.cpu.data     0.939423                       # miss rate for SoftPFReq accesses
system.cpu.dcache.SoftPFReq_miss_rate::total     0.939423                       # miss rate for SoftPFReq accesses
system.cpu.dcache.SoftPFReq_mshr_misses::.cpu.data         7905                       # number of SoftPFReq MSHR misses
system.cpu.dcache.SoftPFReq_mshr_misses::total         7905                       # number of SoftPFReq MSHR misses
system.cpu.dcache.SoftPFReq_mshr_miss_latency::.cpu.data    669988999                       # number of SoftPFReq MSHR miss cycles
system.cpu.dcache.SoftPFReq_mshr_miss_latency::total    669988999                       # number of SoftPFReq MSHR miss cycles
system.cpu.dcache.SoftPFReq_mshr_miss_rate::.cpu.data     0.938948                       # mshr miss rate for SoftPFReq accesses
system.cpu.dcache.SoftPFReq_mshr_miss_rate::total     0.938948                       # mshr miss rate for SoftPFReq accesses
system.cpu.dcache.SoftPFReq_avg_mshr_miss_latency::.cpu.data 84755.091588                       # average SoftPFReq mshr miss latency
system.cpu.dcache.SoftPFReq_avg_mshr_miss_latency::total 84755.091588                       # average SoftPFReq mshr miss latency
system.cpu.dcache.LoadLockedReq_hits::.cpu.data           38                       # number of LoadLockedReq hits
system.cpu.dcache.LoadLockedReq_hits::total           38                       # number of LoadLockedReq hits
system.cpu.dcache.LoadLockedReq_accesses::.cpu.data           38                       # number of LoadLockedReq accesses(hits+misses)
system.cpu.dcache.LoadLockedReq_accesses::total           38                       # number of LoadLockedReq accesses(hits+misses)
system.cpu.dcache.StoreCondReq_hits::.cpu.data           38                       # number of StoreCondReq hits
system.cpu.dcache.StoreCondReq_hits::total           38                       # number of StoreCondReq hits
system.cpu.dcache.StoreCondReq_accesses::.cpu.data           38                       # number of StoreCondReq accesses(hits+misses)
system.cpu.dcache.StoreCondReq_accesses::total           38                       # number of StoreCondReq accesses(hits+misses)
system.cpu.dcache.power_state.pwrStateResidencyTicks::UNDEFINED  80489292500                       # Cumulative time (in ticks) in various power states
system.cpu.dcache.tags.tagsinuse          2011.303801                       # Cycle average of tags in use
system.cpu.dcache.tags.total_refs            52014519                       # Total number of references to valid blocks.
system.cpu.dcache.tags.sampled_refs            476390                       # Sample count of references to valid blocks.
system.cpu.dcache.tags.avg_refs            109.184741                       # Average number of references to valid blocks.
system.cpu.dcache.tags.warmup_cycle            176500                       # Cycle when the warmup percentage was hit.
system.cpu.dcache.tags.occ_blocks::.cpu.data  2011.303801                       # Average occupied blocks per requestor
system.cpu.dcache.tags.occ_percent::.cpu.data     0.982082                       # Average percentage of cache occupancy
system.cpu.dcache.tags.occ_percent::total     0.982082                       # Average percentage of cache occupancy
system.cpu.dcache.tags.occ_task_id_blocks::1024         2048                       # Occupied blocks per task id
system.cpu.dcache.tags.age_task_id_blocks_1024::0          147                       # Occupied blocks per task id
system.cpu.dcache.tags.age_task_id_blocks_1024::1          715                       # Occupied blocks per task id
system.cpu.dcache.tags.age_task_id_blocks_1024::2         1162                       # Occupied blocks per task id
system.cpu.dcache.tags.age_task_id_blocks_1024::3           22                       # Occupied blocks per task id
system.cpu.dcache.tags.age_task_id_blocks_1024::4            2                       # Occupied blocks per task id
system.cpu.dcache.tags.occ_task_id_percent::1024            1                       # Percentage of cache occupancy per task id
system.cpu.dcache.tags.tag_accesses         417088678                       # Number of tag accesses
system.cpu.dcache.tags.data_accesses        417088678                       # Number of data accesses
system.cpu.dcache.tags.power_state.pwrStateResidencyTicks::UNDEFINED  80489292500                       # Cumulative time (in ticks) in various power states
system.cpu.power_state.pwrStateResidencyTicks::ON  80489292500                       # Cumulative time (in ticks) in various power states
system.cpu.branchPred.lookups                 4485895                       # Number of BP lookups
system.cpu.branchPred.condPredicted           3735596                       # Number of conditional branches predicted
system.cpu.branchPred.condIncorrect             81005                       # Number of conditional branches incorrect
system.cpu.branchPred.BTBLookups              2103787                       # Number of BTB lookups
system.cpu.branchPred.BTBHits                 2101785                       # Number of BTB hits
system.cpu.branchPred.BTBHitPct             99.904838                       # BTB Hit Percentage
system.cpu.branchPred.RASUsed                   65379                       # Number of times the RAS was used to get a target.
system.cpu.branchPred.RASIncorrect                 14                       # Number of incorrect RAS predictions.
system.cpu.branchPred.indirectLookups             692                       # Number of indirect predictor lookups.
system.cpu.branchPred.indirectHits                288                       # Number of indirect target hits.
system.cpu.branchPred.indirectMisses              404                       # Number of indirect misses.
system.cpu.branchPred.indirectMispredicted          171                       # Number of mispredicted indirect branches.
system.cpu.fetch2.intInstructions            42685729                       # Number of integer instructions successfully decoded
system.cpu.fetch2.fpInstructions                    0                       # Number of floating point instructions successfully decoded
system.cpu.fetch2.vecInstructions                   0                       # Number of SIMD instructions successfully decoded
system.cpu.fetch2.loadInstructions           43474848                       # Number of memory load instructions successfully decoded
system.cpu.fetch2.storeInstructions          11024769                       # Number of memory store instructions successfully decoded
system.cpu.fetch2.amoInstructions                   0                       # Number of memory atomic instructions successfully decoded
system.cpu.itb.instHits                             0                       # ITB inst hits
system.cpu.itb.instMisses                           0                       # ITB inst misses
system.cpu.itb.readHits                             0                       # DTB read hits
system.cpu.itb.readMisses                           0                       # DTB read misses
system.cpu.itb.writeHits                            0                       # DTB write hits
system.cpu.itb.writeMisses                          0                       # DTB write misses
system.cpu.itb.inserts                              0                       # Number of times an entry is inserted into the TLB
system.cpu.itb.flushTlb                             0                       # Number of times complete TLB was flushed
system.cpu.itb.flushTlbMva                          0                       # Number of times TLB was flushed by MVA
system.cpu.itb.flushTlbMvaAsid                      0                       # Number of times TLB was flushed by MVA & ASID
system.cpu.itb.flushTlbAsid                         0                       # Number of times TLB was flushed by ASID
system.cpu.itb.flushedEntries                       0                       # Number of entries that have been flushed from TLB
system.cpu.itb.alignFaults                          0                       # Number of TLB faults due to alignment restrictions
system.cpu.itb.prefetchFaults                       0                       # Number of TLB faults due to prefetch
system.cpu.itb.domainFaults                         0                       # Number of TLB faults due to domain restrictions
system.cpu.itb.permsFaults                          0                       # Number of TLB faults due to permissions restrictions
system.cpu.itb.readAccesses                         0                       # DTB read accesses
system.cpu.itb.writeAccesses                        0                       # DTB write accesses
system.cpu.itb.instAccesses                         0                       # ITB inst accesses
system.cpu.itb.hits                                 0                       # Total TLB (inst and data) hits
system.cpu.itb.misses                               0                       # Total TLB (inst and data) misses
system.cpu.itb.accesses                             0                       # Total TLB (inst and data) accesses
system.cpu.itb.walker.walks                         0                       # Table walker walks requested
system.cpu.itb.walker.requestOrigin_Requested::Data            0                       # Table walker requests started/completed, data/inst
system.cpu.itb.walker.requestOrigin_Requested::Inst            0                       # Table walker requests started/completed, data/inst
system.cpu.itb.walker.requestOrigin_Requested::total            0                       # Table walker requests started/completed, data/inst
system.cpu.itb.walker.requestOrigin_Completed::Data            0                       # Table walker requests started/completed, data/inst
system.cpu.itb.walker.requestOrigin_Completed::Inst            0                       # Table walker requests started/completed, data/inst
system.cpu.itb.walker.requestOrigin_Completed::total            0                       # Table walker requests started/completed, data/inst
system.cpu.itb.walker.requestOrigin::total            0                       # Table walker requests started/completed, data/inst
system.cpu.itb.walker.power_state.pwrStateResidencyTicks::UNDEFINED  80489292500                       # Cumulative time (in ticks) in various power states
system.cpu.itb.stage2_mmu.stage2_tlb.instHits            0                       # ITB inst hits
system.cpu.itb.stage2_mmu.stage2_tlb.instMisses            0                       # ITB inst misses
system.cpu.itb.stage2_mmu.stage2_tlb.readHits            0                       # DTB read hits
system.cpu.itb.stage2_mmu.stage2_tlb.readMisses            0                       # DTB read misses
system.cpu.itb.stage2_mmu.stage2_tlb.writeHits            0                       # DTB write hits
system.cpu.itb.stage2_mmu.stage2_tlb.writeMisses            0                       # DTB write misses
system.cpu.itb.stage2_mmu.stage2_tlb.inserts            0                       # Number of times an entry is inserted into the TLB
system.cpu.itb.stage2_mmu.stage2_tlb.flushTlb            0                       # Number of times complete TLB was flushed
system.cpu.itb.stage2_mmu.stage2_tlb.flushTlbMva            0                       # Number of times TLB was flushed by MVA
system.cpu.itb.stage2_mmu.stage2_tlb.flushTlbMvaAsid            0                       # Number of times TLB was flushed by MVA & ASID
system.cpu.itb.stage2_mmu.stage2_tlb.flushTlbAsid            0                       # Number of times TLB was flushed by ASID
system.cpu.itb.stage2_mmu.stage2_tlb.flushedEntries            0                       # Number of entries that have been flushed from TLB
system.cpu.itb.stage2_mmu.stage2_tlb.alignFaults            0                       # Number of TLB faults due to alignment restrictions
system.cpu.itb.stage2_mmu.stage2_tlb.prefetchFaults            0                       # Number of TLB faults due to prefetch
system.cpu.itb.stage2_mmu.stage2_tlb.domainFaults            0                       # Number of TLB faults due to domain restrictions
system.cpu.itb.stage2_mmu.stage2_tlb.permsFaults            0                       # Number of TLB faults due to permissions restrictions
system.cpu.itb.stage2_mmu.stage2_tlb.readAccesses            0                       # DTB read accesses
system.cpu.itb.stage2_mmu.stage2_tlb.writeAccesses            0                       # DTB write accesses
system.cpu.itb.stage2_mmu.stage2_tlb.instAccesses            0                       # ITB inst accesses
system.cpu.itb.stage2_mmu.stage2_tlb.hits            0                       # Total TLB (inst and data) hits
system.cpu.itb.stage2_mmu.stage2_tlb.misses            0                       # Total TLB (inst and data) misses
system.cpu.itb.stage2_mmu.stage2_tlb.accesses            0                       # Total TLB (inst and data) accesses
system.cpu.itb.stage2_mmu.stage2_tlb.walker.walks            0                       # Table walker walks requested
system.cpu.itb.stage2_mmu.stage2_tlb.walker.requestOrigin_Requested::Data            0                       # Table walker requests started/completed, data/inst
system.cpu.itb.stage2_mmu.stage2_tlb.walker.requestOrigin_Requested::Inst            0                       # Table walker requests started/completed, data/inst
system.cpu.itb.stage2_mmu.stage2_tlb.walker.requestOrigin_Requested::total            0                       # Table walker requests started/completed, data/inst
system.cpu.itb.stage2_mmu.stage2_tlb.walker.requestOrigin_Completed::Data            0                       # Table walker requests started/completed, data/inst
system.cpu.itb.stage2_mmu.stage2_tlb.walker.requestOrigin_Completed::Inst            0                       # Table walker requests started/completed, data/inst
system.cpu.itb.stage2_mmu.stage2_tlb.walker.requestOrigin_Completed::total            0                       # Table walker requests started/completed, data/inst
system.cpu.itb.stage2_mmu.stage2_tlb.walker.requestOrigin::total            0                       # Table walker requests started/completed, data/inst
system.cpu.itb.stage2_mmu.stage2_tlb.walker.power_state.pwrStateResidencyTicks::UNDEFINED  80489292500                       # Cumulative time (in ticks) in various power states

---------- End Simulation Statistics   ----------
